version 2
run General-9-20161208-15:07:08-760
attr configname General
attr datetime 20161208-15:07:08
attr experiment General
attr inifile omnetpp.ini
attr iterationvars ""
attr iterationvars2 $repetition=9
attr measurement ""
attr network com.liborio.locvanet.LocScenario
attr processid 760
attr repetition 9
attr replication #9
attr resultdir results
attr runnumber 9
attr seedset 9
param **.coreDebug false
param **.debug false
param *.**.nic.mac1609_4.bitrate 18Mbps
param *.**.nic.mac1609_4.txPower 20mW
param *.**.nic.mac1609_4.useServiceChannel false
param *.**.nic.phy80211p.analogueModels "xmldoc(\"config_trgi.xml\")"
param *.**.nic.phy80211p.decider "xmldoc(\"config_trgi.xml\")"
param *.**.nic.phy80211p.sensitivity -89dBm
param *.**.nic.phy80211p.thermalNoise -110dBm
param *.**.nic.phy80211p.usePropagationDelay true
param *.**.nic.phy80211p.useThermalNoise true
param *.annotations.draw false
param *.connectionManager.alpha 2.0
param *.connectionManager.carrierFrequency "5.890e9 Hz"
param *.connectionManager.pMax 20mW
param *.connectionManager.sat -89dBm
param *.connectionManager.sendDirect true
param *.manager.autoShutdown true
param *.manager.host "\"localhost\""
param *.manager.launchConfig "xmldoc(\"tunnel.launchd.xml\")"
param *.manager.margin 25
param *.manager.moduleDisplayString "\"\""
param *.manager.moduleName "\"node\""
param *.manager.moduleType "\"org.car2x.veins.nodes.Car\""
param *.manager.port 9999
param *.manager.updateInterval 0.1s
param *.node[*].appl.beaconInterval 0.1s
param *.node[*].appl.beaconPriority 3
param *.node[*].appl.dataOnSch false
param *.node[*].appl.dataPriority 2
param *.node[*].appl.debug false
param *.node[*].appl.headerLength "256 bit"
param *.node[*].appl.maxOffset 0.005s
param *.node[*].appl.sendBeacons true
param *.node[*].appl.sendData true
param *.node[*].applType "\"LocAppCom\""
param *.node[*].mobilityType "\"TraCIMobility\""
param *.node[*].mobilityType.debug true
param *.node[*].veinsmobility.x 0
param *.node[*].veinsmobility.y 0
param *.node[*].veinsmobility.z 1.895
param *.node[*].veinsmobilityType "\"org.car2x.veins.modules.mobility.traci.TraCIMobility\""
param *.node[*].veinsmobilityType.debug true
param *.playgroundSizeX 5000m
param *.playgroundSizeY 5000m
param *.playgroundSizeZ 50m
param *.world.use2D false
param *.world.useTorus false

vector 2  LocScenario.node[0].veinsmobility  posx  ETV
vector 3  LocScenario.node[0].veinsmobility  posy  ETV
vector 4  LocScenario.node[0].veinsmobility  speed  ETV
vector 5  LocScenario.node[0].veinsmobility  acceleration  ETV
vector 6  LocScenario.node[0].veinsmobility  co2emission  ETV
vector 9  LocScenario.node[1].veinsmobility  posx  ETV
vector 10  LocScenario.node[1].veinsmobility  posy  ETV
vector 11  LocScenario.node[1].veinsmobility  speed  ETV
vector 12  LocScenario.node[1].veinsmobility  acceleration  ETV
vector 13  LocScenario.node[1].veinsmobility  co2emission  ETV
vector 16  LocScenario.node[2].veinsmobility  posx  ETV
vector 17  LocScenario.node[2].veinsmobility  posy  ETV
vector 18  LocScenario.node[2].veinsmobility  speed  ETV
vector 19  LocScenario.node[2].veinsmobility  acceleration  ETV
vector 20  LocScenario.node[2].veinsmobility  co2emission  ETV
vector 23  LocScenario.node[3].veinsmobility  posx  ETV
vector 24  LocScenario.node[3].veinsmobility  posy  ETV
vector 25  LocScenario.node[3].veinsmobility  speed  ETV
vector 26  LocScenario.node[3].veinsmobility  acceleration  ETV
vector 27  LocScenario.node[3].veinsmobility  co2emission  ETV
vector 30  LocScenario.node[4].veinsmobility  posx  ETV
vector 31  LocScenario.node[4].veinsmobility  posy  ETV
vector 32  LocScenario.node[4].veinsmobility  speed  ETV
vector 33  LocScenario.node[4].veinsmobility  acceleration  ETV
vector 34  LocScenario.node[4].veinsmobility  co2emission  ETV
vector 37  LocScenario.node[5].veinsmobility  posx  ETV
vector 38  LocScenario.node[5].veinsmobility  posy  ETV
vector 39  LocScenario.node[5].veinsmobility  speed  ETV
vector 40  LocScenario.node[5].veinsmobility  acceleration  ETV
vector 41  LocScenario.node[5].veinsmobility  co2emission  ETV
vector 44  LocScenario.node[6].veinsmobility  posx  ETV
vector 45  LocScenario.node[6].veinsmobility  posy  ETV
vector 46  LocScenario.node[6].veinsmobility  speed  ETV
vector 47  LocScenario.node[6].veinsmobility  acceleration  ETV
vector 48  LocScenario.node[6].veinsmobility  co2emission  ETV
vector 51  LocScenario.node[7].veinsmobility  posx  ETV
vector 52  LocScenario.node[7].veinsmobility  posy  ETV
vector 53  LocScenario.node[7].veinsmobility  speed  ETV
vector 54  LocScenario.node[7].veinsmobility  acceleration  ETV
vector 55  LocScenario.node[7].veinsmobility  co2emission  ETV
vector 58  LocScenario.node[8].veinsmobility  posx  ETV
vector 59  LocScenario.node[8].veinsmobility  posy  ETV
vector 60  LocScenario.node[8].veinsmobility  speed  ETV
vector 61  LocScenario.node[8].veinsmobility  acceleration  ETV
vector 62  LocScenario.node[8].veinsmobility  co2emission  ETV
vector 65  LocScenario.node[9].veinsmobility  posx  ETV
vector 66  LocScenario.node[9].veinsmobility  posy  ETV
vector 67  LocScenario.node[9].veinsmobility  speed  ETV
vector 68  LocScenario.node[9].veinsmobility  acceleration  ETV
vector 69  LocScenario.node[9].veinsmobility  co2emission  ETV
6	22	0.3	1.9591683334812
6	32	0.4	2.8398588113177
6	42	0.5	2.8437795933056
6	52	0.6	5.9103009906685
6	62	0.7	2.0348426466766
6	72	0.8	1.6790228468738
6	82	0.9	3.9265720631448
6	92	1	3.6444890071892
6	102	1.1	1.5365466065051
6	133	1.2	1.5672978408094
6	164	1.3	3.9002888466076
6	195	1.4	3.8647397553655
6	226	1.5	1.1814811346889
6	257	1.6	3.9549058747965
6	288	1.7	0.973
6	319	1.8	2.3596471859353
6	350	1.9	8.5809937009552
6	381	2	0.973
6	412	2.1	3.6145845199455
6	476	2.2	5.5808616962784
6	540	2.3	0.973
6	604	2.4	0.973
6	668	2.5	4.3802905559061
6	732	2.6	3.1641539377736
6	796	2.7	0.92789268700295
6	860	2.8	3.4816803698794
6	924	2.9	7.0146203916233
6	988	3	3.4740673603503
6	1052	3.1	0.973
6	1161	3.2	0.80016789367279
6	1270	3.3	7.4080496999681
6	1379	3.4	0.973
6	1488	3.5	6.3439514841137
6	1597	3.6	1.1650064378302
6	1706	3.7	3.6561028981692
6	1815	3.8	0.973
6	1924	3.9	3.965469401414
6	2033	4	1.3254698457933
6	2142	4.1	4.5651415696467
6	2308	4.2	5.138861231369
6	2474	4.3	3.5233421614181
6	2640	4.4	3.0896631886171
6	2806	4.5	0.58497124652823
6	2972	4.6	5.6664698385927
6	3138	4.7	2.9076230393515
6	3304	4.8	0.973
6	3470	4.9	4.7459722468619
6	3636	5	2.5029423906446
6	3802	5.1	1.6871832445535
6	4037	5.2	7.3771114795403
6	4272	5.3	2.0316998760511
6	4507	5.4	0.973
6	4742	5.5	2.7491231450446
6	4977	5.6	6.1635250314192
6	5212	5.7	2.1396218284649
6	5447	5.8	0.973
6	5682	5.9	8.0596213577666
6	5917	6	1.8741681796942
6	6152	6.1	3.3991447400971
6	6468	6.2	0.973
6	6784	6.3	0.64512955894396
6	7100	6.4	7.0577855901862
6	7416	6.5	0.973
6	7732	6.6	5.5821816178235
6	8048	6.7	0.973
6	8364	6.8	5.8680830252199
6	8680	6.9	3.1189511741384
6	8996	7	0.973
6	9312	7.1	6.9249106599337
6	9721	7.2	2.1045543488952
6	10130	7.3	2.4693907525977
6	10539	7.4	0.973
6	10948	7.5	6.5554705488641
6	11357	7.6	0.973
6	11766	7.7	5.2158027372
6	12175	7.8	5.3381680808736
6	12584	7.9	3.5783850905529
6	12993	8	0.91801213630764
6	13402	8.1	0.973
6	13916	8.2	4.7720641999703
6	14430	8.3	3.6669374349669
6	14944	8.4	0.973
6	15458	8.5	5.3780323514882
6	15972	8.6	0.973
6	16486	8.7	4.9649156094971
6	17000	8.8	4.1206308445023
6	17514	8.9	1.1582220426488
6	18028	9	3.7690840816944
6	18542	9.1	4.7927192154992
6	19173	9.2	0.84606363284436
6	19804	9.3	4.240877701351
6	20435	9.4	0.973
6	21066	9.5	4.467579049745
6	21697	9.6	4.3297495689595
6	22328	9.7	3.1321615477237
6	22959	9.8	3.0265408339324
6	23590	9.9	0.973
6	24221	10	2.1663488618506
6	24852	10.1	7.3531876814607
6	25483	10.2	1.4167637277153
6	26114	10.3	1.8352720127791
6	26745	10.4	0.973
6	27376	10.5	5.2053487810561
6	28007	10.6	3.6222988957061
6	28638	10.7	3.5933364551631
6	29269	10.8	0.71984405563169
6	29900	10.9	3.7172118079229
6	30531	11	5.8539292205609
6	31162	11.1	0.973
6	31793	11.2	3.8067387543178
6	32424	11.3	4.6110324207057
6	33055	11.4	0.973
6	33686	11.5	2.7663324999915
6	34317	11.6	6.9358979001998
6	34948	11.7	2.1033920858871
6	35579	11.8	5.0481431065669
6	36210	11.9	0.973
6	36841	12	4.4823987580063
6	37472	12.1	1.6267648935302
6	38103	12.2	6.7955830540138
6	38734	12.3	3.5587393083444
6	39365	12.4	0.973
6	39996	12.5	3.8566095472572
6	40627	12.6	3.6148260995344
6	41258	12.7	3.1578562894464
6	41889	12.8	0.6297593339422
6	42520	12.9	7.4268071923576
6	43151	13	3.1913163864807
6	43782	13.1	0.973
6	44413	13.2	4.8092565827369
6	45044	13.3	1.5878483983935
6	45675	13.4	3.8380757035001
6	46306	13.5	2.7474919577088
6	46937	13.6	2.9034411499806
6	47568	13.7	0.915556112369
6	48199	13.8	4.2270411005913
6	48830	13.9	2.4812362466295
6	49461	14	0.973
6	50092	14.1	2.1723228719587
6	50723	14.2	6.7436422599071
6	51354	14.3	3.7646362756419
6	51985	14.4	0.973
6	52616	14.5	2.1033234326322
6	53247	14.6	5.2911408615659
6	53878	14.7	4.4939638222725
6	54509	14.8	3.3114586046212
6	55140	14.9	0.973
6	55771	15	4.9993522353701
6	56402	15.1	3.2736056619209
6	57033	15.2	4.3060681154129
6	57664	15.3	2.3248902472152
6	58295	15.4	3.3330345341955
6	58926	15.5	0.69269056616793
6	59557	15.6	4.9709516148353
6	60188	15.7	2.6076592261957
6	60819	15.8	2.6837097501062
6	61450	15.9	0.973
6	62081	16	1.3509695428077
6	62712	16.1	1.0055219644014
6	63343	16.2	4.5499109721833
6	63974	16.3	1.6762183771202
6	64605	16.4	6.239073306479
6	65236	16.5	1.6227148967094
6	65867	16.6	1.1789142706976
6	66498	16.7	2.4395232806009
6	67129	16.8	6.8364712977172
6	67760	16.9	3.9307392622701
6	68391	17	2.7876603720856
6	69022	17.1	0.973
6	69653	17.2	4.8208570477256
6	70284	17.3	4.7412596193255
6	70915	17.4	0.973
6	71546	17.5	7.8736465905116
6	72177	17.6	1.2083807945048
6	72808	17.7	0.973
6	73439	17.8	7.1279473819079
6	74070	17.9	2.1033485172148
6	74701	18	0.973
6	75332	18.1	6.5452738745123
6	75963	18.2	3.0491176529211
6	76594	18.3	0.973
6	77225	18.4	4.6694183170867
6	77856	18.5	4.438818380724
6	78487	18.6	0.973
6	79118	18.7	6.1690311355828
6	79749	18.8	3.2574045930186
6	80380	18.9	3.6315940541253
6	81011	19	0.973
6	81642	19.1	4.5896813561355
6	82273	19.2	4.3946039303094
6	82904	19.3	2.8608128999937
6	83535	19.4	4.5610120466088
6	84166	19.5	2.5769341753637
6	84797	19.6	0.973
5	22	0.3	-0.17863764003849
5	32	0.4	0.0035674986662215
5	42	0.5	0.0043641877127953
5	52	0.6	0.63469925760291
5	62	0.7	-0.1641723626992
5	72	0.8	-0.23711321277077
5	82	0.9	0.22634718578775
5	92	1	0.16742580560965
5	102	1.1	-0.26680766234637
5	133	1.2	-0.25993436502759
5	164	1.3	0.22152911603914
5	195	1.4	0.2132539755199
5	226	1.5	-0.33987068550193
5	257	1.6	0.2323389792349
5	288	1.7	-0.92531755135859
5	319	1.8	-0.094126430666073
5	350	1.9	1.1858803517651
5	381	2	-0.85846672281622
5	412	2.1	0.16425184127876
5	476	2.2	0.56777869495562
5	540	2.3	-0.53538004620933
5	604	2.4	-0.5141098587308
5	668	2.5	0.32352870085742
5	732	2.6	0.071331568574529
5	796	2.7	-0.39124302745332
5	860	2.8	0.13809715248644
5	924	2.9	0.86405744156803
5	988	3	0.13255671097429
5	1052	3.1	-0.75643217575269
5	1161	3.2	-0.41769720190207
5	1270	3.3	0.94604943031445
5	1379	3.4	-0.86211008848622
5	1488	3.5	0.72718792611269
5	1597	3.6	-0.34272652727086
5	1706	3.7	0.17233284930697
5	1815	3.8	-0.51016456114592
5	1924	3.9	0.23755445852874
5	2033	4	-0.30878378064372
5	2142	4.1	0.36150837291498
5	2308	4.2	0.47760554898996
5	2474	4.3	0.14325533842204
5	2640	4.4	0.053527689957988
5	2806	4.5	-0.46298483889551
5	2972	4.6	0.58463118516375
5	3138	4.7	0.015489762928347
5	3304	4.8	-1.0157876032405
5	3470	4.9	0.3979331526207
5	3636	5	-0.065947738452827
5	3802	5.1	-0.23428207512477
5	4037	5.2	0.93722274962346
5	4272	5.3	-0.16481751054524
5	4507	5.4	-0.54840162699112
5	4742	5.5	-0.014915467589169
5	4977	5.6	0.68720503414514
5	5212	5.7	-0.14249284281394
5	5447	5.8	-0.89343601930885
5	5682	5.9	1.0779755060328
5	5917	6	-0.19726099707185
5	6152	6.1	0.11710499490146
5	6468	6.2	-0.65894568199294
5	6784	6.3	-0.44993962971493
5	7100	6.4	0.87376686590723
5	7416	6.5	-0.7736804700922
5	7732	6.6	0.57020875185259
5	8048	6.7	-0.50118808511176
5	8364	6.8	0.62850608187727
5	8680	6.9	0.060199474845994
5	8996	7	-0.54609841958154
5	9312	7.1	0.84420000072569
5	9721	7.2	-0.14973613687324
5	10130	7.3	-0.074205425847325
5	10539	7.4	-0.50461128752215
5	10948	7.5	0.76771464536435
5	11357	7.6	-1.1908213688526
5	11766	7.7	0.49543573351112
5	12175	7.8	0.51770892841741
5	12584	7.9	0.15383249924053
5	12993	8	-0.39436475106051
5	13402	8.1	-0.59715421139263
5	13916	8.2	0.40316173371394
5	14430	8.3	0.17382488958535
5	14944	8.4	-0.4871603565989
5	15458	8.5	0.52724534035661
5	15972	8.6	-0.7136201728834
5	16486	8.7	0.44336653025823
5	17000	8.8	0.26742387490813
5	17514	8.9	-0.34420251280537
5	18028	9	0.19541421632749
5	18542	9.1	0.40494474708101
5	19173	9.2	-0.40906189840751
5	19804	9.3	0.29161231280305
5	20435	9.4	-0.60566324472894
5	21066	9.5	0.33975523978008
5	21697	9.6	0.30975214545613
5	22328	9.7	0.062273674388429
5	22959	9.8	0.040332540147929
5	23590	9.9	-0.79121586412658
5	24221	10	-0.1347389315022
5	24852	10.1	0.93309644465332
5	25483	10.2	-0.29132396515923
5	26114	10.3	-0.20437375712209
5	26745	10.4	-0.654841689975
5	27376	10.5	0.49367758347653
5	28007	10.6	0.165267499513
5	28638	10.7	0.15862662671132
5	29269	10.8	-0.43479883454275
5	29900	10.9	0.1852846566355
5	30531	11	0.62346686364616
5	31162	11.1	-0.78037302244919
5	31793	11.2	0.20361014402006
5	32424	11.3	0.36812313715927
5	33055	11.4	-0.89086397257635
5	33686	11.5	-0.0099172355374222
5	34317	11.6	0.84864416341297
5	34948	11.7	-0.14923590184189
5	35579	11.8	0.45696746567263
5	36210	11.9	-1.2618139986647
5	36841	12	0.34487490516621
5	37472	12.1	-0.24630501857029
5	38103	12.2	0.81992192631589
5	38734	12.3	0.15054996788969
5	39365	12.4	-1.0133028784301
5	39996	12.5	0.21553308689036
5	40627	12.6	0.16473711060826
5	41258	12.7	0.069840574660311
5	41889	12.8	-0.453092369833
5	42520	12.9	0.94966408740728
5	43151	13	0.07466435204261
5	43782	13.1	-0.50758088121658
5	44413	13.2	0.40920712843072
5	45044	13.3	-0.25564610364381
5	45675	13.4	0.20881604864261
5	46306	13.5	-0.016440357104877
5	46937	13.6	0.015727410186095
5	47568	13.7	-0.39443395547568
5	48199	13.8	0.28967515428086
5	48830	13.9	-0.070979853998878
5	49461	14	-0.48627990938257
5	50092	14.1	-0.13322419326286
5	50723	14.2	0.80899662708397
5	51354	14.3	0.19276535580865
5	51985	14.4	-0.86816421521362
5	52616	14.5	-0.14750022669322
5	53247	14.6	0.51076087190303
5	53878	14.7	0.34409353323284
5	54509	14.8	0.099470035242817
5	55140	14.9	-0.64408113150854
5	55771	15	0.44901066473685
5	56402	15.1	0.092043206724313
5	57033	15.2	0.30383579889314
5	57664	15.3	-0.10447242520751
5	58295	15.4	0.10316168803257
5	58926	15.5	-0.44089796612969
5	59557	15.6	0.44096865276806
5	60188	15.7	-0.046298910002243
5	60819	15.8	-0.030514183756907
5	61450	15.9	-0.52575499992816
5	62081	16	-0.30400347413959
5	62712	16.1	-0.37503705471757
5	63343	16.2	0.35882144011559
5	63974	16.3	-0.23608477660456
5	64605	16.4	0.70559554866051
5	65236	16.5	-0.24812837401406
5	65867	16.6	-0.33943344661967
5	66498	16.7	-0.077864213963039
5	67129	16.8	0.82787504484877
5	67760	16.9	0.22671751820017
5	68391	17	-0.0090788408415321
5	69022	17.1	-1.0751324530924
5	69653	17.2	0.4139472950483
5	70284	17.3	0.39538294242227
5	70915	17.4	-0.74740242382976
5	71546	17.5	1.0400192907546
5	72177	17.6	-0.33440611402039
5	72808	17.7	-0.71018544563561
5	73439	17.8	0.88740257408936
5	74070	17.9	-0.14954708667936
5	74701	18	-0.51668907140847
5	75332	18.1	0.76639584843068
5	75963	18.2	0.044812699942867
5	76594	18.3	-0.75533430937213
5	77225	18.4	0.38102975862564
5	77856	18.5	0.33172187688763
5	78487	18.6	-1.0871331589529
5	79118	18.7	0.6914116921369
5	79749	18.8	0.089091234444645
5	80380	18.9	0.1657365309773
5	81011	19	-0.97798736130354
5	81642	19.1	0.36670503974893
5	82273	19.2	0.32470057609025
5	82904	19.3	0.0075100118992921
5	83535	19.4	0.35725482013078
5	84166	19.5	-0.052120053465501
5	84797	19.6	-0.75931548450608
4	12	0.2	20.0726200666
4	22	0.3	20.054756302596
4	32	0.4	20.055113052463
4	42	0.5	20.055549471234
4	52	0.6	20.119019396994
4	62	0.7	20.102602160724
4	72	0.8	20.078890839447
4	82	0.9	20.101525558026
4	92	1	20.118268138587
4	102	1.1	20.091587372352
4	133	1.2	20.06559393585
4	164	1.3	20.087746847454
4	195	1.4	20.109072245006
4	226	1.5	20.075085176455
4	257	1.6	20.098319074379
4	288	1.7	20.005787319243
4	319	1.8	19.996374676176
4	350	1.9	20.114962711353
4	381	2	20.029116039071
4	412	2.1	20.045541223199
4	476	2.2	20.102319092695
4	540	2.3	20.048781088074
4	604	2.4	19.997370102201
4	668	2.5	20.029722972286
4	732	2.6	20.036856129144
4	796	2.7	19.997731826399
4	860	2.8	20.011541541647
4	924	2.9	20.097947285804
4	988	3	20.111202956901
4	1052	3.1	20.035559739326
4	1161	3.2	19.993790019136
4	1270	3.3	20.088394962167
4	1379	3.4	20.002183953319
4	1488	3.5	20.07490274593
4	1597	3.6	20.040630093203
4	1706	3.7	20.057863378134
4	1815	3.8	20.006846922019
4	1924	3.9	20.030602367872
4	2033	4	19.999723989808
4	2142	4.1	20.035874827099
4	2308	4.2	20.083635381998
4	2474	4.3	20.09796091584
4	2640	4.4	20.103313684836
4	2806	4.5	20.057015200946
4	2972	4.6	20.115478319463
4	3138	4.7	20.117027295756
4	3304	4.8	20.015448535432
4	3470	4.9	20.055241850694
4	3636	5	20.048647076848
4	3802	5.1	20.025218869336
4	4037	5.2	20.118941144298
4	4272	5.3	20.102459393244
4	4507	5.4	20.047619230545
4	4742	5.5	20.046127683786
4	4977	5.6	20.1148481872
4	5212	5.7	20.100598902919
4	5447	5.8	20.011255300988
4	5682	5.9	20.119052851591
4	5917	6	20.099326751884
4	6152	6.1	20.111037251374
4	6468	6.2	20.045142683175
4	6784	6.3	20.000148720203
4	7100	6.4	20.087525406794
4	7416	6.5	20.010157359785
4	7732	6.6	20.06717823497
4	8048	6.7	20.017059426459
4	8364	6.8	20.079910034647
4	8680	6.9	20.085929982131
4	8996	7	20.031320140173
4	9312	7.1	20.115740140246
4	9721	7.2	20.100766526558
4	10130	7.3	20.093345983974
4	10539	7.4	20.042884855221
4	10948	7.5	20.119656319758
4	11357	7.6	20.000574182873
4	11766	7.7	20.050117756224
4	12175	7.8	20.101888649066
4	12584	7.9	20.11727189899
4	12993	8	20.077835423884
4	13402	8.1	20.018120002744
4	13916	8.2	20.058436176116
4	14430	8.3	20.075818665074
4	14944	8.4	20.027102629414
4	15458	8.5	20.07982716345
4	15972	8.6	20.008465146162
4	16486	8.7	20.052801799187
4	17000	8.8	20.079544186678
4	17514	8.9	20.045123935398
4	18028	9	20.06466535703
4	18542	9.1	20.105159831739
4	19173	9.2	20.064253641898
4	19804	9.3	20.093414873178
4	20435	9.4	20.032848548705
4	21066	9.5	20.066824072683
4	21697	9.6	20.097799287229
4	22328	9.7	20.104026654668
4	22959	9.8	20.108059908682
4	23590	9.9	20.02893832227
4	24221	10	20.01546442912
4	24852	10.1	20.108774073585
4	25483	10.2	20.079641677069
4	26114	10.3	20.059204301357
4	26745	10.4	19.993720132359
4	27376	10.5	20.043087890707
4	28007	10.6	20.059614640658
4	28638	10.7	20.075477303329
4	29269	10.8	20.031997419875
4	29900	10.9	20.050525885539
4	30531	11	20.112872571903
4	31162	11.1	20.034835269658
4	31793	11.2	20.05519628406
4	32424	11.3	20.092008597776
4	33055	11.4	20.002922200519
4	33686	11.5	20.001930476965
4	34317	11.6	20.086794893306
4	34948	11.7	20.071871303122
4	35579	11.8	20.117568049689
4	36210	11.9	19.991386649823
4	36841	12	20.025874140339
4	37472	12.1	20.001243638482
4	38103	12.2	20.083235831114
4	38734	12.3	20.098290827903
4	39365	12.4	19.99696054006
4	39996	12.5	20.018513848749
4	40627	12.6	20.03498755981
4	41258	12.7	20.041971617276
4	41889	12.8	19.996662380293
4	42520	12.9	20.091628789033
4	43151	13	20.099095224238
4	43782	13.1	20.048337136116
4	44413	13.2	20.089257848959
4	45044	13.3	20.063693238595
4	45675	13.4	20.084574843459
4	46306	13.5	20.082930807748
4	46937	13.6	20.084503548767
4	47568	13.7	20.045060153219
4	48199	13.8	20.074027668647
4	48830	13.9	20.066929683248
4	49461	14	20.018301692309
4	50092	14.1	20.004979272983
4	50723	14.2	20.085878935691
4	51354	14.3	20.105155471272
4	51985	14.4	20.018339049751
4	52616	14.5	20.003589027082
4	53247	14.6	20.054665114272
4	53878	14.7	20.089074467595
4	54509	14.8	20.099021471119
4	55140	14.9	20.034613357969
4	55771	15	20.079514424442
4	56402	15.1	20.088718745115
4	57033	15.2	20.119102325004
4	57664	15.3	20.108655082483
4	58295	15.4	20.118971251287
4	58926	15.5	20.074881454674
4	59557	15.6	20.11897831995
4	60188	15.7	20.11434842895
4	60819	15.8	20.111297010574
4	61450	15.9	20.058721510582
4	62081	16	20.028321163168
4	62712	16.1	19.990817457696
4	63343	16.2	20.026699601708
4	63974	16.3	20.003091124047
4	64605	16.4	20.073650678913
4	65236	16.5	20.048837841512
4	65867	16.6	20.01489449685
4	66498	16.7	20.007108075453
4	67129	16.8	20.089895579938
4	67760	16.9	20.112567331758
4	68391	17	20.111659447674
4	69022	17.1	20.004146202365
4	69653	17.2	20.04554093187
4	70284	17.3	20.085079226112
4	70915	17.4	20.010338983729
4	71546	17.5	20.114340912804
4	72177	17.6	20.080900301402
4	72808	17.7	20.009881756839
4	73439	17.8	20.098622014248
4	74070	17.9	20.08366730558
4	74701	18	20.031998398439
4	75332	18.1	20.108637983282
4	75963	18.2	20.113119253276
4	76594	18.3	20.037585822339
4	77225	18.4	20.075688798202
4	77856	18.5	20.10886098589
4	78487	18.6	20.000147669995
4	79118	18.7	20.069288839209
4	79749	18.8	20.078197962653
4	80380	18.9	20.094771615751
4	81011	19	19.996972879621
4	81642	19.1	20.033643383596
4	82273	19.2	20.066113441205
4	82904	19.3	20.066864442395
4	83535	19.4	20.102589924408
4	84166	19.5	20.097377919061
4	84797	19.6	20.021446370611
3	2	0.1	416.34012864494
3	12	0.2	416.34012864494
3	22	0.3	414.33291727046
3	32	0.4	412.32749222731
3	42	0.5	410.32203151008
3	52	0.6	408.31652715208
3	62	0.7	406.30467596159
3	72	0.8	404.29446645333
3	82	0.9	402.28662801738
3	92	1	400.27652616666
3	102	1.1	398.26475010012
3	133	1.2	396.25564204291
3	164	1.3	394.24913326378
3	195	1.4	392.24040924937
3	226	1.5	390.22955274899
3	257	1.6	388.22209486974
3	288	1.7	386.2123136593
3	319	1.8	384.21178539097
3	350	1.9	382.21219836321
3	381	2	380.20075283106
3	412	2.1	378.19789174959
3	476	2.2	376.19338819114
3	540	2.3	374.18320698896
3	604	2.4	372.1783794522
3	668	2.5	370.17869288434
3	732	2.6	368.17577111108
3	796	2.7	366.17213604013
3	860	2.8	364.17241330077
3	924	2.9	362.17130962471
3	988	3	360.16156559219
3	1052	3.1	358.150496026
3	1161	3.2	356.14699059076
3	1270	3.3	354.14766202218
3	1379	3.4	352.13887319793
3	1488	3.5	350.13870525711
3	1597	3.6	348.13126562045
3	1706	3.7	346.12725316261
3	1815	3.8	344.12151741975
3	1924	3.9	342.12088319382
3	2033	4	340.11787348322
3	2142	4.1	338.11795153254
3	2308	4.2	336.11441458932
3	2474	4.3	334.10610171108
3	2640	4.4	332.09635631559
3	2806	4.5	330.08607565671
3	2972	4.6	328.08042472943
3	3138	4.7	326.06892763777
3	3304	4.8	324.05727565238
3	3470	4.9	322.0557812868
3	3636	5	320.05030769007
3	3802	5.1	318.04549355409
3	4037	5.2	316.04302217977
3	4272	5.3	314.03117881436
3	4507	5.4	312.02098358248
3	4742	5.5	310.01627222854
3	4977	5.6	308.01171002551
3	5212	5.7	306.00027594549
3	5447	5.8	303.99026675795
3	5682	5.9	301.98919170523
3	5917	6	299.97733716938
3	6152	6.1	297.96745519373
3	6468	6.2	295.95640219768
3	6784	6.3	293.95193849222
3	7100	6.4	291.95197406957
3	7416	6.5	289.94327219867
3	7732	6.6	287.94230693731
3	8048	6.7	285.93563973226
3	8364	6.8	283.93398428164
3	8680	6.9	281.92604392874
3	8996	7	279.91750159628
3	9312	7.1	277.91442011026
3	9721	7.2	275.90289683718
3	10130	7.3	273.8928708877
3	10539	7.4	271.88358697376
3	10948	7.5	269.87934904541
3	11357	7.6	267.86743416426
3	11766	7.7	265.86742719641
3	12175	7.8	263.86246599621
3	12584	7.9	261.85232783731
3	12993	8	259.84065139222
3	13402	8.1	257.83291849516
3	13916	8.2	255.83115698959
3	14430	8.3	253.82536396837
3	14944	8.4	251.81783274211
3	15458	8.5	249.81517299653
3	15972	8.6	247.80724093054
3	16486	8.7	245.80644488628
3	17000	8.8	243.80121528854
3	17514	8.9	241.79331151952
3	18028	9	239.7888496888
3	18542	9.1	237.7824337652
3	19173	9.2	235.77196849629
3	19804	9.3	233.76559374317
3	20435	9.4	231.75630294048
3	21066	9.5	229.75306861747
3	21697	9.6	227.74643682775
3	22328	9.7	225.73670759472
3	22959	9.8	223.72635564065
3	23590	9.9	221.71560037136
3	24221	10	219.71275706112
3	24852	10.1	217.71126110621
3	25483	10.2	215.70043442223
3	26114	10.3	213.69252090441
3	26745	10.4	211.68665107261
3	27376	10.5	209.68732949253
3	28007	10.6	207.68307126114
3	28638	10.7	205.67716039645
3	29269	10.8	203.6696633055
3	29900	10.9	201.66651409322
3	30531	11	199.66151208111
3	31162	11.1	197.65027555763
3	31793	11.2	195.64684256753
3	32424	11.3	193.64137352735
3	33055	11.4	191.63222334866
3	33686	11.5	189.63198158497
3	34317	11.6	187.63183899114
3	34948	11.7	185.62321016974
3	35579	11.8	183.61607366972
3	36210	11.9	181.6043676103
3	36841	12	179.60527937259
3	37472	12.1	177.60274247282
3	38103	12.2	175.6026685611
3	38734	12.3	173.59439563695
3	39365	12.4	171.58461725109
3	39996	12.5	169.58497163841
3	40627	12.6	167.58317074923
3	41258	12.7	165.5797225305
3	41889	12.8	163.57557592364
3	42520	12.9	161.57596012619
3	43151	13	159.56684792741
3	43782	13.1	157.55698910395
3	44413	13.2	155.55220596126
3	45044	13.3	153.54333085051
3	45675	13.4	151.53701213631
3	46306	13.5	149.52860531429
3	46937	13.6	147.5203628917
3	47568	13.7	145.51196319898
3	48199	13.8	143.50750774631
3	48830	13.9	141.50015561518
3	49461	14	139.49351326467
3	50092	14.1	137.4917335906
3	50723	14.2	135.49128612486
3	51354	14.3	133.48274889691
3	51985	14.4	131.47228406403
3	52616	14.5	129.47050065431
3	53247	14.6	127.47019220965
3	53878	14.7	125.46477628511
3	54509	14.8	123.45591951203
3	55140	14.9	121.4460680637
3	55771	15	119.44265726421
3	56402	15.1	117.43475647133
3	57033	15.2	115.4259352696
3	57664	15.3	113.41407578653
3	58295	15.4	111.40326100135
3	58926	15.5	109.39141462532
3	59557	15.6	107.38397711773
3	60188	15.7	105.37213003485
3	60819	15.8	103.36074592939
3	61450	15.9	101.34966695807
3	62081	16	99.343845404128
3	62712	16.1	97.341063808246
3	63343	16.2	95.34203248831
3	63974	16.3	93.339413044484
3	64605	16.4	91.339154388872
3	65236	16.5	89.331839955757
3	65867	16.6	87.327006743793
3	66498	16.7	85.325567780675
3	67129	16.8	83.324907440055
3	67760	16.9	81.315968557815
3	68391	17	79.30476255758
3	69022	17.1	77.293647343464
3	69653	17.2	75.293283182683
3	70284	17.3	73.288779653366
3	70915	17.4	71.280322394359
3	71546	17.5	69.279338971062
3	72177	17.6	67.267955617197
3	72808	17.7	65.25991624012
3	73439	17.8	63.258978538358
3	74070	17.9	61.249167034698
3	74701	18	59.240850964183
3	75332	18.1	57.23770165405
3	75963	18.2	55.226888578751
3	76594	18.3	53.215627387757
3	77225	18.4	51.211919349328
3	77856	18.5	49.204401109425
3	78487	18.6	47.193565734428
3	79118	18.7	45.193601416797
3	79749	18.8	43.18672315665
3	80380	18.9	41.178954006631
3	81011	19	39.169527533109
3	81642	19.1	37.169880686507
3	82273	19.2	35.166566882008
3	82904	19.3	33.160006153651
3	83535	19.4	31.15337032707
3	84166	19.5	29.143162042403
3	84797	19.6	27.133474945124
2	2	0.1	26.697598627787
2	12	0.2	26.697598627787
2	22	0.3	26.716332533106
2	32	0.4	26.735049766059
2	42	0.5	26.75376733197
2	52	0.6	26.772485305192
2	62	0.7	26.791262515304
2	72	0.8	26.810024403104
2	82	0.9	26.828764160976
2	92	1	26.847525043976
2	102	1.1	26.866301552934
2	133	1.2	26.885053160561
2	164	1.3	26.903780508347
2	195	1.4	26.922528531588
2	226	1.5	26.941296457959
2	257	1.6	26.960032663981
2	288	1.7	26.978790554349
2	319	1.8	26.997462084235
2	350	1.9	27.016124829241
2	381	2	27.034898253223
2	412	2.1	27.053591555953
2	476	2.2	27.072300188414
2	540	2.3	27.091061812024
2	604	2.4	27.109773468271
2	668	2.5	27.128437142315
2	732	2.6	27.1471310115
2	796	2.7	27.165831538106
2	860	2.8	27.184495549749
2	924	2.9	27.203172450088
2	988	3	27.221929993464
2	1052	3.1	27.240699908442
2	1161	3.2	27.25939922512
2	1270	3.3	27.278059557849
2	1379	3.4	27.296808185979
2	1488	3.5	27.315476352821
2	1597	3.6	27.334212388579
2	1706	3.7	27.35291643745
2	1815	3.8	27.371636570257
2	1924	3.9	27.390309089077
2	2033	4	27.409003779008
2	2142	4.1	27.42766964995
2	2308	4.2	27.446369260701
2	2474	4.3	27.465113446684
2	2640	4.4	27.483871002781
2	2806	4.5	27.502633554651
2	2972	4.6	27.521352895848
2	3138	4.7	27.54012680105
2	3304	4.8	27.558902151921
2	3470	4.9	27.577582698683
2	3636	5	27.596300384801
2	3802	5.1	27.615011915975
2	4037	5.2	27.633701581452
2	4272	5.3	27.65247871853
2	4507	5.4	27.671240473084
2	4742	5.5	27.689951044962
2	4977	5.6	27.70866022477
2	5212	5.7	27.727433541865
2	5447	5.8	27.746193560012
2	5682	5.9	27.764870193201
2	5917	6	27.783647434537
2	6152	6.1	27.802406265376
2	6468	6.2	27.821176025701
2	6784	6.3	27.839884286201
2	7100	6.4	27.858550553547
2	7416	6.5	27.877298370116
2	7732	6.6	27.895973978589
2	8048	6.7	27.914702805011
2	8364	6.8	27.933384855228
2	8680	6.9	27.952125564321
2	8996	7	27.970871891869
2	9312	7.1	27.989567251702
2	9721	7.2	28.008341401262
2	10130	7.3	28.027101575853
2	10539	7.4	28.045854824804
2	10948	7.5	28.064560978059
2	11357	7.6	28.083338782615
2	11766	7.7	28.102005447048
2	12175	7.8	28.120718350816
2	12584	7.9	28.139479572691
2	12993	8	28.158255151852
2	13402	8.1	28.176993924698
2	13916	8.2	28.195676964757
2	14430	8.3	28.21439763216
2	14944	8.4	28.233134522751
2	15458	8.5	28.251825946353
2	15972	8.6	28.270566578102
2	16486	8.7	28.289240607221
2	17000	8.8	28.307956016024
2	17514	8.9	28.326696383669
2	18028	9	28.345404626672
2	18542	9.1	28.364131107809
2	19173	9.2	28.3828953827
2	19804	9.3	28.401621479581
2	20435	9.4	28.420374792827
2	21066	9.5	28.439071579132
2	21697	9.6	28.457800075013
2	22328	9.7	28.47655748026
2	22959	9.8	28.49532069755
2	23590	9.9	28.514087679101
2	24221	10	28.532780815967
2	24852	10.1	28.551461377562
2	25483	10.2	28.570229025648
2	26114	10.3	28.588969484281
2	26745	10.4	28.60769086858
2	27376	10.5	28.626351136084
2	28007	10.6	28.645057478833
2	28638	10.7	28.663779246104
2	29269	10.8	28.682515818101
2	29900	10.9	28.701211810042
2	30531	11	28.71992509472
2	31162	11.1	28.738696567961
2	31793	11.2	28.757395208486
2	32424	11.3	28.776112852077
2	33055	11.4	28.794864852836
2	33686	11.5	28.813533708689
2	34317	11.6	28.83220163896
2	34948	11.7	28.850948773735
2	35579	11.8	28.869681980229
2	36210	11.9	28.888457835789
2	36841	12	28.907115925438
2	37472	12.1	28.925806202484
2	38103	12.2	28.944473491723
2	38734	12.3	28.963217304804
2	39365	12.4	28.981975168809
2	39996	12.5	29.000638460606
2	40627	12.6	29.019321868244
2	41258	12.7	29.038020650902
2	41889	12.8	29.056725951826
2	42520	12.9	29.075388965348
2	43151	13	29.09414061163
2	43782	13.1	29.112899226384
2	44413	13.2	29.131610468288
2	45044	13.3	29.150359901756
2	45675	13.4	29.169085475609
2	46306	13.5	29.187830538398
2	46937	13.6	29.206574066798
2	47568	13.7	29.225319063047
2	48199	13.8	29.244027246522
2	48830	13.9	29.262762465565
2	49461	14	29.281491060012
2	50092	14.1	29.300174269643
2	50723	14.2	29.318845045375
2	51354	14.3	29.337591325282
2	51985	14.4	29.356355596103
2	52616	14.5	29.3750388406
2	53247	14.6	29.393708318806
2	53878	14.7	29.412425466653
2	54509	14.8	29.43117472897
2	55140	14.9	29.449933274889
2	55771	15	29.468631708303
2	56402	15.1	29.48737204817
2	57033	15.2	29.506120978489
2	57664	15.3	29.524898265999
2	58295	15.4	29.54366580303
2	58926	15.5	29.562442968207
2	59557	15.6	29.581178984094
2	60188	15.7	29.599956155869
2	60819	15.8	29.618729006536
2	61450	15.9	29.637499009296
2	62081	16	29.656219943003
2	62712	16.1	29.674912503871
2	63343	16.2	29.693570062289
2	63974	16.3	29.712261109743
2	64605	16.4	29.730930123253
2	65236	16.5	29.749664990449
2	65867	16.6	29.768376699664
2	66498	16.7	29.787056729338
2	67129	16.8	29.805729491895
2	67760	16.9	29.824479520561
2	68391	17	29.843250708919
2	69022	17.1	29.862021049944
2	69653	17.2	29.880691048165
2	70284	17.3	29.899399680354
2	70915	17.4	29.918145213886
2	71546	17.5	29.93682099187
2	72177	17.6	29.955593835523
2	72808	17.7	29.974335468838
2	73439	17.8	29.993010820089
2	74070	17.9	30.011768993193
2	74701	18	30.030513208971
2	75332	18.1	30.049209201826
2	75963	18.2	30.067976722898
2	76594	18.3	30.086748426369
2	77225	18.4	30.105449634002
2	77856	18.5	30.124186403388
2	78487	18.6	30.14295413259
2	79118	18.7	30.161620398955
2	79749	18.8	30.180351195218
2	80380	18.9	30.199090306423
2	81011	19	30.217844885926
2	81642	19.1	30.236508189239
2	82273	19.2	30.255205717369
2	82904	19.3	30.273933550013
2	83535	19.4	30.29266208357
2	84166	19.5	30.31142395995
2	84797	19.6	30.330180971932
13	164	1.3	2.8464575438327
13	195	1.4	3.2338841973212
13	226	1.5	4.142905127815
13	257	1.6	3.5635048137333
13	288	1.7	4.4111210107318
13	319	1.8	0.973
13	350	1.9	2.0612834540951
13	381	2	10.146022972974
13	412	2.1	3.7004618088291
13	476	2.2	1.2193268012469
13	540	2.3	6.6526825877562
13	604	2.4	2.5814550651066
13	668	2.5	0.973
13	732	2.6	5.5206953919418
13	796	2.7	4.4571336485925
13	860	2.8	0.973
13	924	2.9	9.5987446366726
13	988	3	1.8121984909544
13	1052	3.1	8.5980775923509
13	1161	3.2	0.973
13	1270	3.3	4.3195757294032
13	1379	3.4	10.56279737465
13	1488	3.5	0.973
13	1597	3.6	4.211534189138
13	1706	3.7	3.9096886651277
13	1815	3.8	0.973
13	1924	3.9	5.0123515064311
13	2033	4	4.8616362895271
13	2142	4.1	3.8490850831489
13	2308	4.2	4.7870457823674
13	2474	4.3	4.1885897524298
13	2640	4.4	4.6002487896119
13	2806	4.5	0.973
13	2972	4.6	5.2687228051505
13	3138	4.7	6.8852578357252
13	3304	4.8	1.756229750653
13	3470	4.9	0.973
13	3636	5	8.072346475307
13	3802	5.1	1.2218156329447
13	4037	5.2	2.937440465342
13	4272	5.3	7.8356792636642
13	4507	5.4	3.6605360633775
13	4742	5.5	0.82654245820057
13	4977	5.6	2.5591340143047
13	5212	5.7	3.9175911948294
13	5447	5.8	6.1097573785964
13	5682	5.9	0.973
13	5917	6	5.9859483760839
13	6152	6.1	0.973
13	6468	6.2	4.4716518126965
13	6784	6.3	0.973
13	7100	6.4	3.9050548976689
13	7416	6.5	9.7838487862606
13	7732	6.6	0.973
13	8048	6.7	4.8546996877235
13	8364	6.8	1.0399404531304
13	8680	6.9	7.1451420918651
13	8996	7	2.0084903978702
13	9312	7.1	1.8573688729762
13	9721	7.2	9.3745934563006
13	10130	7.3	0.973
13	10539	7.4	6.1240049816366
13	10948	7.5	0.973
13	11357	7.6	3.8311591096466
13	11766	7.7	0.72091038367926
13	12175	7.8	7.7934369824263
13	12584	7.9	4.6176319355287
13	12993	8	0.973
13	13402	8.1	6.7240185943844
13	13916	8.2	0.973
13	14430	8.3	6.2822858202784
13	14944	8.4	3.8759405248197
13	15458	8.5	4.2569218945939
13	15972	8.6	3.5330208876656
13	16486	8.7	2.3245373066235
13	17000	8.8	1.7941930806869
13	17514	8.9	5.4887670203682
13	18028	9	0.973
13	18542	9.1	5.5864216731136
13	19173	9.2	2.9937344771116
13	19804	9.3	5.9169403890688
13	20435	9.4	3.8981520018302
13	21066	9.5	0.973
13	21697	9.6	8.0642186403937
13	22328	9.7	1.7856295918545
13	22959	9.8	6.0595416684148
13	23590	9.9	0.973
13	24221	10	1.4921882628881
13	24852	10.1	1.2716647815385
13	25483	10.2	7.1026286215421
13	26114	10.3	3.4784983488261
13	26745	10.4	0.66513601771297
13	27376	10.5	0.5907708779013
13	28007	10.6	3.3206520903756
13	28638	10.7	3.6847250269876
13	29269	10.8	4.0973726795847
13	29900	10.9	1.5717667439565
13	30531	11	3.2353375053398
13	31162	11.1	6.6118083809101
13	31793	11.2	2.3625173964723
13	32424	11.3	4.4055522097898
13	33055	11.4	0.61441185941059
13	33686	11.5	0.973
13	34317	11.6	0.65339288299995
13	34948	11.7	6.1336020731345
13	35579	11.8	3.1466952970702
13	36210	11.9	5.158337656288
13	36841	12	2.0876348692202
13	37472	12.1	0.973
13	38103	12.2	3.8933898519032
13	38734	12.3	8.9284871848617
13	39365	12.4	3.1473293854161
13	39996	12.5	0.973
13	40627	12.6	0.973
13	41258	12.7	8.1461696664734
13	41889	12.8	4.1960264539724
13	42520	12.9	0.973
13	43151	13	8.635178121562
13	43782	13.1	2.9697788203155
13	44413	13.2	0.973
13	45044	13.3	6.0797324197141
13	45675	13.4	0.973
13	46306	13.5	6.21831087931
13	46937	13.6	1.1286669369053
13	47568	13.7	4.3861276934338
13	48199	13.8	0.973
13	48830	13.9	4.5938145391747
13	49461	14	4.925652052028
13	50092	14.1	0.973
13	50723	14.2	8.2513818938418
13	51354	14.3	4.0226698577162
13	51985	14.4	4.9198588368246
13	52616	14.5	0.973
13	53247	14.6	0.973
13	53878	14.7	7.6792970812322
13	54509	14.8	0.97968989412344
13	55140	14.9	5.0895606255451
13	55771	15	0.973
13	56402	15.1	7.7965561769105
13	57033	15.2	0.973
13	57664	15.3	4.1524879853731
13	58295	15.4	4.2683581343439
13	58926	15.5	5.2911077488095
13	59557	15.6	0.973
13	60188	15.7	4.3233172903837
13	60819	15.8	0.973
13	61450	15.9	4.7530195833125
13	62081	16	1.8811620222917
13	62712	16.1	3.0199797659936
13	63343	16.2	0.973
13	63974	16.3	5.6770755448116
13	64605	16.4	0.973
13	65236	16.5	6.6799158077288
13	65867	16.6	2.3623405577994
13	66498	16.7	3.8587462062374
13	67129	16.8	0.973
13	67760	16.9	8.5972320196465
13	68391	17	4.5454008632254
13	69022	17.1	4.4568427558477
13	69653	17.2	0.973
13	70284	17.3	3.9414030628398
13	70915	17.4	4.955217269104
13	71546	17.5	0.973
13	72177	17.6	6.7974977144787
13	72808	17.7	0.96964480045761
13	73439	17.8	2.1747149672674
13	74070	17.9	8.1801236724438
13	74701	18	1.1463912660961
13	75332	18.1	0.973
13	75963	18.2	9.7950102157918
13	76594	18.3	0.973
13	77225	18.4	0.973
13	77856	18.5	7.8746560403861
13	78487	18.6	3.0470573649767
13	79118	18.7	0.68411811980249
13	79749	18.8	6.4347244731989
13	80380	18.9	0.84598167220939
13	81011	19	2.0893497577961
13	81642	19.1	0.973
13	82273	19.2	4.973732220718
13	82904	19.3	1.9101564276706
13	83535	19.4	4.3003574674362
13	84166	19.5	1.0558752039775
13	84797	19.6	4.5477438128061
13	85428	19.7	0.973
13	85942	19.8	6.040685780801
13	86456	19.9	3.6103669601454
13	86970	20	4.2778903149588
13	87484	20.1	1.5963328260621
13	87998	20.2	4.1665828163407
13	88512	20.3	6.5688262342488
13	89026	20.4	0.973
13	89540	20.5	6.1602483451591
13	90054	20.6	0.973
13	90568	20.7	4.8433473219398
13	91082	20.8	0.72579968784079
13	91596	20.9	3.2738355975819
12	164	1.3	0.052828451918749
12	195	1.4	0.1384746211766
12	226	1.5	0.33885662979255
12	257	1.6	0.20937126231939
12	288	1.7	0.39514834446898
12	319	1.8	-1.0227095582552
12	350	1.9	-0.12169689730779
12	381	2	1.6575018136002
12	412	2.1	0.23460024720443
12	476	2.2	-0.31155176594066
12	540	2.3	0.88052993420988
12	604	2.4	-0.013694232819965
12	668	2.5	-0.4537821397901
12	732	2.6	0.630809142232
12	796	2.7	0.39528764726722
12	860	2.8	-0.91943896350479
12	924	2.9	1.5146526068459
12	988	3	-0.1849028199176
12	1052	3.1	1.2851676204734
12	1161	3.2	-1.4656678790787
12	1270	3.3	0.36211104969137
12	1379	3.4	1.7043299456162
12	1488	3.5	-0.60672719226805
12	1597	3.6	0.33137960162019
12	1706	3.7	0.26474420715832
12	1815	3.8	-0.7744929717062
12	1924	3.9	0.50494214751815
12	2033	4	0.46960270871228
12	2142	4.1	0.24958137214437
12	2308	4.2	0.44956295684273
12	2474	4.3	0.31909502554949
12	2640	4.4	0.40544048966932
12	2806	4.5	-0.76180462101867
12	2972	4.6	0.55017303793949
12	3138	4.7	0.89041522756354
12	3304	4.8	-0.20586984729761
12	3470	4.9	-1.2270327020214
12	3636	5	1.1468727516484
12	3802	5.1	-0.31962180031648
12	4037	5.2	0.048208938268957
12	4272	5.3	1.0889235489622
12	4507	5.4	0.19774562717863
12	4742	5.5	-0.40549839516444
12	4977	5.6	-0.035526609833809
12	5212	5.7	0.25336272252336
12	5447	5.8	0.71583081559361
12	5682	5.9	-0.88341867945278
12	5917	6	0.69083788778428
12	6152	6.1	-0.47429766951712
12	6468	6.2	0.36934528239136
12	6784	6.3	-0.75502933519871
12	7100	6.4	0.25107975183644
12	7416	6.5	1.4889079746721
12	7732	6.6	-1.5252376864341
12	8048	6.7	0.45134555801692
12	8364	6.8	-0.36020799152453
12	8680	6.9	0.93428980188374
12	8996	7	-0.15557471988007
12	9312	7.1	-0.18724307787242
12	9721	7.2	1.3965014561622
12	10130	7.3	-0.58980342130702
12	10539	7.4	0.70944155284842
12	10948	7.5	-0.58324083536032
12	11357	7.6	0.22726781277829
12	11766	7.7	-0.42966547828712
12	12175	7.8	1.0592907627957
12	12584	7.9	0.38814136724458
12	12993	8	-0.77058936960004
12	13402	8.1	0.83061247306802
12	13916	8.2	-1.5947292124756
12	14430	8.3	0.74374793554192
12	14944	8.4	0.23466666009572
12	15458	8.5	0.31347534582224
12	15972	8.6	0.16041204390085
12	16486	8.7	-0.093545601825227
12	17000	8.8	-0.20470446081113
12	17514	8.9	0.57014933466554
12	18028	9	-0.67176165139554
12	18542	9.1	0.59116984540939
12	19173	9.2	0.046130412746699
12	19804	9.3	0.65598703092093
12	20435	9.4	0.23218712188356
12	21066	9.5	-1.5918113542005
12	21697	9.6	1.1078929618978
12	22328	9.7	-0.20814255420504
12	22959	9.8	0.68433579422756
12	23590	9.9	-0.46626193150171
12	24221	10	-0.2696373206231
12	24852	10.1	-0.31540590401416
12	25483	10.2	0.90368413159403
12	26114	10.3	0.14445218909085
12	26745	10.4	-0.44358422787333
12	27376	10.5	-0.45873251623828
12	28007	10.6	0.11447342154174
12	28638	10.7	0.19012624582928
12	29269	10.8	0.27541560286032
12	29900	10.9	-0.25324459668415
12	30531	11	0.095395616441998
12	31162	11.1	0.79755911170803
12	31793	11.2	-0.089636785832035
12	32424	11.3	0.33556405862221
12	33055	11.4	-0.45476843615354
12	33686	11.5	-0.50804949102204
12	34317	11.6	-0.44563214787274
12	34948	11.7	0.70083339710919
12	35579	11.8	0.075298421660079
12	36210	11.9	0.49338842716935
12	36841	12	-0.14719712382764
12	37472	12.1	-0.70124634566014
12	38103	12.2	0.23209524500277
12	38734	12.3	1.2739631038614
12	39365	12.4	0.070956742749004
12	39996	12.5	-1.0240284770387
12	40627	12.6	-0.51709485329123
12	41258	12.7	1.114364674372
12	41889	12.8	0.28970717113882
12	42520	12.9	-0.87005781728742
12	43151	13	1.2103721522841
12	43782	13.1	0.033211384301453
12	44413	13.2	-0.9840599417986
12	45044	13.3	0.68125981075937
12	45675	13.4	-0.82690311773135
12	46306	13.5	0.71088572941964
12	46937	13.6	-0.34804813610233
12	47568	13.7	0.32958561757699
12	48199	13.8	-0.56840408694114
12	48830	13.9	0.37382807860915
12	49461	14	0.44054948736676
12	50092	14.1	-1.1209806786027
12	50723	14.2	1.1319534330665
12	51354	14.3	0.25159915282565
12	51985	14.4	0.43551365335368
12	52616	14.5	-0.74668790044214
12	53247	14.6	-0.60432061052694
12	53878	14.7	1.0101137062679
12	54509	14.8	-0.37988305630773
12	55140	14.9	0.47208274074944
12	55771	15	-1.0545606852783
12	56402	15.1	1.0338455999241
12	57033	15.2	-0.51440258858943
12	57664	15.3	0.2788819913787
12	58295	15.4	0.30150019224926
12	58926	15.5	0.51063755020888
12	59557	15.6	-0.4791318551457
12	60188	15.7	0.31123334813604
12	60819	15.8	-0.72212438707314
12	61450	15.9	0.40190466882432
12	62081	16	-0.19323195888351
12	62712	16.1	0.043021718092362
12	63343	16.2	-0.80113157050011
12	63974	16.3	0.5957734986216
12	64605	16.4	-0.67068465574302
12	65236	16.5	0.80315045461724
12	65867	16.6	-0.092996934480283
12	66498	16.7	0.21687850106495
12	67129	16.8	-0.95192540291976
12	67760	16.9	1.1977842472369
12	68391	17	0.35628836445824
12	69022	17.1	0.33629216265417
12	69653	17.2	-1.5103855541354
12	70284	17.3	0.23553428741181
12	70915	17.4	0.44379291112957
12	71546	17.5	-0.97905893984503
12	72177	17.6	0.82697373373009
12	72808	17.7	-0.38199122025681
12	73439	17.8	-0.1310700721163
12	74070	17.9	1.1086472984078
12	74701	18	-0.34623084647581
12	75332	18.1	-0.66648732829918
12	75963	18.2	1.4383390740703
12	76594	18.3	-1.0929263832828
12	77225	18.4	-0.5689973233693
12	77856	18.5	1.0470528592305
12	78487	18.6	0.047014064692057
12	79118	18.7	-0.44179031299485
12	79749	18.8	0.74634775335706
12	80380	18.9	-0.40862533125015
12	81011	19	-0.15064672228927
12	81642	19.1	-0.47917095443548
12	82273	19.2	0.44754984348405
12	82904	19.3	-0.1872816983634
12	83535	19.4	0.30733552281994
12	84166	19.5	-0.3645100923309
12	84797	19.6	0.35863362045784
12	85428	19.7	-0.97683675695802
12	85942	19.8	0.67007744434129
12	86456	19.9	0.16495148481333
12	86970	20	0.30193718937227
12	87484	20.1	-0.25284363825339
12	87998	20.2	0.27876596457791
12	88512	20.3	0.77064154697581
12	89026	20.4	-0.9205267969519
12	89540	20.5	0.68793262774125
12	90054	20.6	-0.61054571385029
12	90568	20.7	0.41703558615406
12	91082	20.8	-0.43355696278155
12	91596	20.9	0.093901601899411
11	133	1.2	18.645254390772
11	164	1.3	18.650537235964
11	195	1.4	18.664384698081
11	226	1.5	18.698270361061
11	257	1.6	18.719207487292
11	288	1.7	18.758722321739
11	319	1.8	18.656451365914
11	350	1.9	18.644281676183
11	381	2	18.810031857543
11	412	2.1	18.833491882264
11	476	2.2	18.802336705669
11	540	2.3	18.89038969909
11	604	2.4	18.889020275808
11	668	2.5	18.843642061829
11	732	2.6	18.906722976053
11	796	2.7	18.946251740779
11	860	2.8	18.854307844429
11	924	2.9	19.005773105113
11	988	3	18.987282823122
11	1052	3.1	19.115799585169
11	1161	3.2	18.969232797261
11	1270	3.3	19.00544390223
11	1379	3.4	19.175876896792
11	1488	3.5	19.115204177565
11	1597	3.6	19.148342137727
11	1706	3.7	19.174816558443
11	1815	3.8	19.097367261272
11	1924	3.9	19.147861476024
11	2033	4	19.194821746895
11	2142	4.1	19.21977988411
11	2308	4.2	19.264736179794
11	2474	4.3	19.296645682349
11	2640	4.4	19.337189731316
11	2806	4.5	19.261009269214
11	2972	4.6	19.316026573008
11	3138	4.7	19.405068095764
11	3304	4.8	19.384481111035
11	3470	4.9	19.261777840833
11	3636	5	19.376465115997
11	3802	5.1	19.344502935966
11	4037	5.2	19.349323829793
11	4272	5.3	19.458216184689
11	4507	5.4	19.477990747407
11	4742	5.5	19.43744090789
11	4977	5.6	19.433888246907
11	5212	5.7	19.459224519159
11	5447	5.8	19.530807600719
11	5682	5.9	19.442465732773
11	5917	6	19.511549521552
11	6152	6.1	19.4641197546
11	6468	6.2	19.501054282839
11	6784	6.3	19.425551349319
11	7100	6.4	19.450659324503
11	7416	6.5	19.59955012197
11	7732	6.6	19.447026353327
11	8048	6.7	19.492160909128
11	8364	6.8	19.456140109976
11	8680	6.9	19.549569090164
11	8996	7	19.534011618176
11	9312	7.1	19.515287310389
11	9721	7.2	19.654937456005
11	10130	7.3	19.595957113875
11	10539	7.4	19.666901269159
11	10948	7.5	19.608577185623
11	11357	7.6	19.631303966901
11	11766	7.7	19.588337419073
11	12175	7.8	19.694266495352
11	12584	7.9	19.733080632077
11	12993	8	19.656021695117
11	13402	8.1	19.739082942423
11	13916	8.2	19.579610021176
11	14430	8.3	19.65398481473
11	14944	8.4	19.67745148074
11	15458	8.5	19.708799015322
11	15972	8.6	19.724840219712
11	16486	8.7	19.715485659529
11	17000	8.8	19.695015213448
11	17514	8.9	19.752030146915
11	18028	9	19.684853981775
11	18542	9.1	19.743970966316
11	19173	9.2	19.748584007591
11	19804	9.3	19.814182710683
11	20435	9.4	19.837401422871
11	21066	9.5	19.678220287451
11	21697	9.6	19.789009583641
11	22328	9.7	19.768195328221
11	22959	9.8	19.836628907643
11	23590	9.9	19.790002714493
11	24221	10	19.763038982431
11	24852	10.1	19.731498392029
11	25483	10.2	19.821866805189
11	26114	10.3	19.836312024098
11	26745	10.4	19.791953601311
11	27376	10.5	19.746080349687
11	28007	10.6	19.757527691841
11	28638	10.7	19.776540316424
11	29269	10.8	19.80408187671
11	29900	10.9	19.778757417041
11	30531	11	19.788296978686
11	31162	11.1	19.868052889856
11	31793	11.2	19.859089211273
11	32424	11.3	19.892645617135
11	33055	11.4	19.84716877352
11	33686	11.5	19.796363824418
11	34317	11.6	19.751800609631
11	34948	11.7	19.821883949342
11	35579	11.8	19.829413791508
11	36210	11.9	19.878752634224
11	36841	12	19.864032921842
11	37472	12.1	19.793908287276
11	38103	12.2	19.817117811776
11	38734	12.3	19.944514122162
11	39365	12.4	19.951609796437
11	39996	12.5	19.849206948733
11	40627	12.6	19.797497463404
11	41258	12.7	19.908933930841
11	41889	12.8	19.937904647955
11	42520	12.9	19.850898866226
11	43151	13	19.971936081455
11	43782	13.1	19.975257219885
11	44413	13.2	19.876851225705
11	45044	13.3	19.944977206781
11	45675	13.4	19.862286895008
11	46306	13.5	19.93337546795
11	46937	13.6	19.89857065434
11	47568	13.7	19.931529216097
11	48199	13.8	19.874688807403
11	48830	13.9	19.912071615264
11	49461	14	19.956126564001
11	50092	14.1	19.84402849614
11	50723	14.2	19.957223839447
11	51354	14.3	19.98238375473
11	51985	14.4	20.025935120065
11	52616	14.5	19.951266330021
11	53247	14.6	19.890834268968
11	53878	14.7	19.991845639595
11	54509	14.8	19.953857333964
11	55140	14.9	20.001065608039
11	55771	15	19.895609539511
11	56402	15.1	19.998994099504
11	57033	15.2	19.947553840645
11	57664	15.3	19.975442039783
11	58295	15.4	20.005592059008
11	58926	15.5	20.056655814028
11	59557	15.6	20.008742628514
11	60188	15.7	20.039865963327
11	60819	15.8	19.96765352462
11	61450	15.9	20.007843991503
11	62081	16	19.988520795614
11	62712	16.1	19.992822967423
11	63343	16.2	19.912709810373
11	63974	16.3	19.972287160236
11	64605	16.4	19.905218694661
11	65236	16.5	19.985533740123
11	65867	16.6	19.976234046675
11	66498	16.7	19.997921896782
11	67129	16.8	19.90272935649
11	67760	16.9	20.022507781213
11	68391	17	20.058136617659
11	69022	17.1	20.091765833924
11	69653	17.2	19.940727278511
11	70284	17.3	19.964280707252
11	70915	17.4	20.008659998365
11	71546	17.5	19.910754104381
11	72177	17.6	19.993451477754
11	72808	17.7	19.955252355728
11	73439	17.8	19.942145348516
11	74070	17.9	20.053010078357
11	74701	18	20.018386993709
11	75332	18.1	19.95173826088
11	75963	18.2	20.095572168287
11	76594	18.3	19.986279529958
11	77225	18.4	19.929379797621
11	77856	18.5	20.034085083544
11	78487	18.6	20.038786490014
11	79118	18.7	19.994607458714
11	79749	18.8	20.06924223405
11	80380	18.9	20.028379700925
11	81011	19	20.013315028696
11	81642	19.1	19.965397933252
11	82273	19.2	20.010152917601
11	82904	19.3	19.991424747764
11	83535	19.4	20.022158300046
11	84166	19.5	19.985707290813
11	84797	19.6	20.021570652859
11	85428	19.7	19.923886977163
11	85942	19.8	19.990894721597
11	86456	19.9	20.007389870079
11	86970	20	20.037583589016
11	87484	20.1	20.012299225191
11	87998	20.2	20.040175821648
11	88512	20.3	20.117239976346
11	89026	20.4	20.025187296651
11	89540	20.5	20.093980559425
11	90054	20.6	20.03292598804
11	90568	20.7	20.074629546655
11	91082	20.8	20.031273850377
11	91596	20.9	20.040664010567
10	102	1.1	416.34012864494
10	133	1.2	416.34012864494
10	164	1.3	414.47565023758
10	195	1.4	412.61064355903
10	226	1.5	410.74425216919
10	257	1.6	408.87447229854
10	288	1.7	407.00259876807
10	319	1.8	405.12677385383
10	350	1.9	403.2611757772
10	381	2	401.39679463885
10	412	2.1	399.51583890045
10	476	2.2	397.63253721877
10	540	2.3	395.75235097615
10	604	2.4	393.8633596563
10	668	2.5	391.97450527532
10	732	2.6	390.09018860128
10	796	2.7	388.19956399494
10	860	2.8	386.30498661183
10	924	2.9	384.41960338643
10	988	3	382.51907401703
10	1052	3.1	380.62039362918
10	1161	3.2	378.70886188931
10	1270	3.3	376.81198645852
10	1379	3.4	374.91149000858
10	1488	3.5	372.99395068909
10	1597	3.6	371.08247848847
10	1706	3.7	369.16769257543
10	1815	3.8	367.2502592871
10	1924	3.9	365.34057073312
10	2033	4	363.42583288504
10	2142	4.1	361.50639912832
10	2308	4.2	359.58446962084
10	2474	4.3	357.65804459719
10	2640	4.4	355.72842870378
10	2806	4.5	353.79475850774
10	2972	4.6	351.86870616575
10	3138	4.7	349.93715223215
10	3304	4.8	347.99669437089
10	3470	4.9	346.05829515616
10	3636	5	344.13216595895
10	3802	5.1	342.19456832351
10	4037	5.2	340.26016682545
10	4272	5.3	338.32528325017
10	4507	5.4	336.37951071407
10	4742	5.5	334.43176077159
10	4977	5.6	332.48806571077
10	5212	5.7	330.54472590708
10	5447	5.8	328.59885254008
10	5682	5.9	326.64582104549
10	5917	6	324.70162351486
10	6152	6.1	322.75051777961
10	6468	6.2	320.80415490141
10	6784	6.3	318.85409866356
10	7100	6.4	316.91159252861
10	7416	6.5	314.96657565947
10	7732	6.6	313.00667008615
10	8048	6.7	311.06201650497
10	8364	6.8	309.11284958205
10	8680	6.9	307.16728464819
10	8996	7	305.21237705198
10	9312	7.1	303.25902516373
10	9721	7.2	301.30754565902
10	10130	7.3	299.34210149201
10	10539	7.4	297.38255521045
10	10948	7.5	295.4159146923
10	11357	7.6	293.45510643539
10	11766	7.7	291.49202555768
10	12175	7.8	289.53324122637
10	12584	7.9	287.56386425463
10	12993	8	285.59060596713
10	13402	8.1	283.62505337895
10	13916	8.2	281.65119487555
10	14430	8.3	279.69328326202
10	14944	8.4	277.72793435673
10	15458	8.5	275.76023884404
10	15972	8.6	273.78940865697
10	16486	8.7	271.81697438992
10	17000	8.8	269.84547555529
10	17514	8.9	267.87602371363
10	18028	9	265.90087052244
10	18542	9.1	263.93243477832
10	19173	9.2	261.95808748486
10	19804	9.3	259.98327889892
10	20435	9.4	258.00191060813
10	21066	9.5	256.01822050469
10	21697	9.6	254.05044811327
10	22328	9.7	252.07159707169
10	22959	9.8	250.09482740315
10	23590	9.9	248.11121454928
10	24221	10	246.13226419712
10	24852	10.1	244.15601015015
10	25483	10.2	242.18291008266
10	26114	10.3	240.20077340181
10	26745	10.4	238.2171922355
10	27376	10.5	236.23804679958
10	28007	10.6	234.26348857311
10	28638	10.7	232.28778564129
10	29269	10.8	230.31018149498
10	29900	10.9	228.32982326211
10	30531	11	226.35199741133
10	31162	11.1	224.37321762845
10	31793	11.2	222.38646245563
10	32424	11.3	220.40060362806
10	33055	11.4	218.41138924455
10	33686	11.5	216.42672243068
10	34317	11.6	214.44713598357
10	34948	11.7	212.47200574553
10	35579	11.8	210.48986735031
10	36210	11.9	208.50697598986
10	36841	12	206.51915086959
10	37472	12.1	204.53279768343
10	38103	12.2	202.55345678385
10	38734	12.3	200.57179499035
10	39365	12.4	198.57739388717
10	39996	12.5	196.58228323446
10	40627	12.6	194.59741260822
10	41258	12.7	192.61771280007
10	41889	12.8	190.62686962627
10	42520	12.9	188.63312945384
10	43151	13	186.64808964011
10	43782	13.1	184.65094641018
10	44413	13.2	182.65347107477
10	45044	13.3	180.66583609056
10	45675	13.4	178.67138868009
10	46306	13.5	176.68521009221
10	46937	13.6	174.69192282635
10	47568	13.7	172.70211595406
10	48199	13.8	170.70901330873
10	48830	13.9	168.7215945609
10	49461	14	166.73043762657
10	50092	14.1	164.7348753085
10	50723	14.2	162.75052251445
10	51354	14.3	160.7548504716
10	51985	14.4	158.75666250069
10	52616	14.5	156.7541195031
10	53247	14.6	154.75904319617
10	53878	14.7	152.7700099429
10	54509	14.8	150.77087580737
10	55140	14.9	148.77554040657
10	55771	15	146.77548429745
10	56402	15.1	144.78597352918
10	57033	15.2	142.78612456569
10	57664	15.3	140.79141949833
10	58295	15.4	138.7939256814
10	58926	15.5	136.7934169386
10	59557	15.6	134.7878019491
10	60188	15.7	132.7869781573
10	60819	15.8	130.78304211052
10	61450	15.9	128.78632712547
10	62081	16	126.7855931951
10	62712	16.1	124.78679153558
10	63343	16.2	122.78755966973
10	63974	16.3	120.7963389175
10	64605	16.4	118.79916058057
10	65236	16.5	116.80868892102
10	65867	16.6	114.81018595951
10	66498	16.7	112.81261294389
10	67129	16.8	110.81287119797
10	67760	16.9	108.82264846595
10	68391	17	106.8204481936
10	69022	17.1	104.81468512748
10	69653	17.2	102.80555922456
10	70284	17.3	100.81153679619
10	70915	17.4	98.815159084362
10	71546	17.5	96.814343555366
10	72177	17.6	94.823318368806
10	72808	17.7	92.824023653508
10	73439	17.8	90.828548754058
10	74070	17.9	88.834384522267
10	74701	18	86.829134097143
10	75332	18.1	84.827345893148
10	75963	18.2	82.832222394318
10	76594	18.3	80.822715867562
10	77225	18.4	78.824138328953
10	77856	18.5	76.831250620051
10	78487	18.6	74.82789264667
10	79118	18.7	72.824064544502
10	79749	18.8	70.824654234024
10	80380	18.9	68.817780634275
10	81011	19	66.814993184765
10	81642	19.1	64.813712164478
10	82273	19.2	62.817222732867
10	82904	19.3	60.816257915713
10	83535	19.4	58.817165868302
10	84166	19.5	56.815000543187
10	84797	19.6	54.816480227049
10	85428	19.7	52.81437366517
10	85942	19.8	50.822035224459
10	86456	19.9	48.822996178327
10	86970	20	46.822307658956
10	87484	20.1	44.818599843853
10	87998	20.2	42.817420401354
10	88512	20.3	40.813453369527
10	89026	20.4	38.80178011662
10	89540	20.5	36.799311899485
10	90054	20.6	34.7899645296
10	90568	20.7	32.786722462846
10	91082	20.8	30.779310145426
10	91596	20.9	28.776233288271
9	102	1.1	26.697598627787
9	133	1.2	26.697598627787
9	164	1.3	26.715000363547
9	195	1.4	26.73240702982
9	226	1.5	26.749826620019
9	257	1.6	26.767277835924
9	288	1.7	26.784748592584
9	319	1.8	26.802256228693
9	350	1.9	26.819668414662
9	381	2	26.837069242581
9	412	2.1	26.854624766209
9	476	2.2	26.87220218523
9	540	2.3	26.889750526923
9	604	2.4	26.907381049042
9	668	2.5	26.925010293069
9	732	2.6	26.942597185317
9	796	2.7	26.960242951388
9	860	2.8	26.977925609909
9	924	2.9	26.995522456601
9	988	3	27.013260666794
9	1052	3.1	27.030981619888
9	1161	3.2	27.048822518501
9	1270	3.3	27.06652662539
9	1379	3.4	27.084264528336
9	1488	3.5	27.102161497491
9	1597	3.6	27.120001840407
9	1706	3.7	27.137873111195
9	1815	3.8	27.155769090729
9	1924	3.9	27.173592786337
9	2033	4	27.191463608519
9	2142	4.1	27.209378259025
9	2308	4.2	27.22731620312
9	2474	4.3	27.245296105215
9	2640	4.4	27.263305788654
9	2806	4.5	27.281353312114
9	2972	4.6	27.299329735859
9	3138	4.7	27.317357507608
9	3304	4.8	27.335468382382
9	3470	4.9	27.353560043191
9	3636	5	27.371537184249
9	3802	5.1	27.389621363678
9	4037	5.2	27.4076757126
9	4272	5.3	27.425734560892
9	4507	5.4	27.443895039119
9	4742	5.5	27.462073973073
9	4977	5.6	27.4802150616
9	5212	5.7	27.498352834407
9	5447	5.8	27.516514253719
9	5682	5.9	27.534742481981
9	5917	6	27.55288826021
9	6152	6.1	27.571098514783
9	6468	6.2	27.58926450285
9	6784	6.3	27.607464962149
9	7100	6.4	27.625594954076
9	7416	6.5	27.643748379436
9	7732	6.6	27.662040765535
9	8048	6.7	27.680190800221
9	8364	6.8	27.698382959278
9	8680	6.9	27.716541499891
9	8996	7	27.734787238372
9	9312	7.1	27.753018456964
9	9721	7.2	27.771232200039
9	10130	7.3	27.789576279493
9	10539	7.4	27.807865312215
9	10948	7.5	27.826220557573
9	11357	7.6	27.844521368688
9	11766	7.7	27.862843390855
9	12175	7.8	27.881125312066
9	12584	7.9	27.899506097565
9	12993	8	27.917923108548
9	13402	8.1	27.936268199929
9	13916	8.2	27.954690812906
9	14430	8.3	27.972964588781
9	14944	8.4	27.991307779129
9	15458	8.5	28.009672871067
9	15972	8.6	28.02806721986
9	16486	8.7	28.046476540013
9	17000	8.8	28.064877129494
9	17514	8.9	28.083258613777
9	18028	9	28.101693310463
9	18542	9.1	28.120065311203
9	19173	9.2	28.138492486204
9	19804	9.3	28.156923966587
9	20435	9.4	28.17541667066
9	21066	9.5	28.193931044907
9	21697	9.6	28.212296854378
9	22328	9.7	28.23076606421
9	22959	9.8	28.249215847964
9	23590	9.9	28.267729501217
9	24221	10	28.286199637945
9	24852	10.1	28.304644609249
9	25483	10.2	28.323060143516
9	26114	10.3	28.341560019205
9	26745	10.4	28.360073376709
9	27376	10.5	28.378545334212
9	28007	10.6	28.396974477914
9	28638	10.7	28.415414305495
9	29269	10.8	28.43387187768
9	29900	10.9	28.45235515458
9	30531	11	28.470814795999
9	31162	11.1	28.489283340753
9	31793	11.2	28.507826322211
9	32424	11.3	28.52636093781
9	33055	11.4	28.544926871819
9	33686	11.5	28.563450361997
9	34317	11.6	28.58192643559
9	34948	11.7	28.600360918047
9	35579	11.8	28.618860809737
9	36210	11.9	28.637367729076
9	36841	12	28.655920696674
9	37472	12.1	28.67445992627
9	38103	12.2	28.692933708094
9	38734	12.3	28.711429151517
9	39365	12.4	28.730043494734
9	39996	12.5	28.74866446039
9	40627	12.6	28.76718985281
9	41258	12.7	28.785666984435
9	41889	12.8	28.804248120432
9	42520	12.9	28.822856294985
9	43151	13	28.841383266482
9	43782	13.1	28.860023202791
9	44413	13.2	28.878666238739
9	45044	13.3	28.897217431741
9	45675	13.4	28.915832207158
9	46306	13.5	28.934369807176
9	46937	13.6	28.952973754616
9	47568	13.7	28.9715452185
9	48199	13.8	28.990147442821
9	48830	13.9	29.008696617624
9	49461	14	29.027280682041
9	50092	14.1	29.045905863226
9	50723	14.2	29.064426422563
9	51354	14.3	29.083052627841
9	51985	14.4	29.10170231503
9	52616	14.5	29.120392648989
9	53247	14.6	29.139013294085
9	53878	14.7	29.157577537551
9	54509	14.8	29.176236055578
9	55140	14.9	29.194859118875
9	55771	15	29.213526241958
9	56402	15.1	29.232094942214
9	57033	15.2	29.250760131945
9	57664	15.3	29.269377312151
9	58295	15.4	29.288020520593
9	58926	15.5	29.306691868242
9	59557	15.6	29.325410874021
9	60188	15.7	29.344085162117
9	60819	15.8	29.362788497821
9	61450	15.9	29.381424437191
9	62081	16	29.400097886583
9	62712	16.1	29.418753301512
9	63343	16.2	29.437412731685
9	63974	16.3	29.455997391734
9	64605	16.4	29.474637655707
9	65236	16.5	29.49321532425
9	65867	16.6	29.51186795134
9	66498	16.7	29.530511898967
9	67129	16.8	29.549176088004
9	67760	16.9	29.567751433232
9	68391	17	29.586438568432
9	69022	17.1	29.605158956255
9	69653	17.2	29.623910730442
9	70284	17.3	29.642521539374
9	70915	17.4	29.661154330873
9	71546	17.5	29.679828541849
9	72177	17.6	29.698411376625
9	72808	17.7	29.717071393391
9	73439	17.8	29.735695758671
9	74070	17.9	29.754307891097
9	74701	18	29.773023494288
9	75332	18.1	29.791706783531
9	75963	18.2	29.810327869084
9	76594	18.3	29.829083195747
9	77225	18.4	29.847736518888
9	77856	18.5	29.866336737144
9	78487	18.6	29.885034677515
9	79118	18.7	29.90373700574
9	79749	18.8	29.92239810139
9	80380	18.9	29.941128854156
9	81011	19	29.959821469658
9	81642	19.1	29.978500025204
9	82273	19.2	29.997133859416
9	82904	19.3	30.015809463744
9	83535	19.4	30.03446758895
9	84166	19.5	30.053154397977
9	84797	19.6	30.071807187044
9	85428	19.7	30.090493447617
9	85942	19.8	30.109088539388
9	86456	19.9	30.127746169917
9	86970	20	30.146419195474
9	87484	20.1	30.165120401023
9	87998	20.2	30.183798008513
9	88512	20.3	30.20250163341
9	89026	20.4	30.221277182778
9	89540	20.5	30.239966818787
9	90054	20.6	30.258720659992
9	90568	20.7	30.277417518572
9	91082	20.8	30.296153299352
9	91596	20.9	30.314848615981
20	540	2.3	4.0549704076959
20	604	2.4	7.424463077457
20	668	2.5	2.6731035857002
20	732	2.6	2.4439127953403
20	796	2.7	5.8668793030257
20	860	2.8	9.0865310396518
20	924	2.9	0.973
20	988	3	9.4534686398357
20	1052	3.1	0.92159655703389
20	1161	3.2	12.328293649183
20	1270	3.3	0.973
20	1379	3.4	5.6339353127831
20	1488	3.5	11.12576837985
20	1597	3.6	1.766135460916
20	1706	3.7	5.1809742113989
20	1815	3.8	5.9514044789174
20	1924	3.9	0.973
20	2033	4	9.2037463355995
20	2142	4.1	1.8296735711412
20	2308	4.2	5.7992049278294
20	2474	4.3	2.9536785045668
20	2640	4.4	8.9057141655355
20	2806	4.5	1.3851422963148
20	2972	4.6	0.973
20	3138	4.7	7.9044579825533
20	3304	4.8	9.0456682837583
20	3470	4.9	0.973
20	3636	5	0.91536328041899
20	3802	5.1	5.5321944420611
20	4037	5.2	2.6233720249533
20	4272	5.3	4.6525506550285
20	4507	5.4	2.7908657975809
20	4742	5.5	5.2162366779203
20	4977	5.6	4.7945744996046
20	5212	5.7	0.973
20	5447	5.8	7.0449399870632
20	5682	5.9	3.4305664813075
20	5917	6	0.973
20	6152	6.1	7.5153661831054
20	6468	6.2	3.9442870208637
20	6784	6.3	3.3603044334959
20	7100	6.4	0.973
20	7416	6.5	6.8789746903372
20	7732	6.6	9.3055328200722
20	8048	6.7	0.973
20	8364	6.8	6.4210010909556
20	8680	6.9	2.0408621420785
20	8996	7	3.6167640086024
20	9312	7.1	1.8787899037856
20	9721	7.2	5.9076849998786
20	10130	7.3	8.3291075305685
20	10539	7.4	0.973
20	10948	7.5	6.3923366006937
20	11357	7.6	0.973
20	11766	7.7	6.1810030777007
20	12175	7.8	0.973
20	12584	7.9	6.1792721346712
20	12993	8	7.6585087991592
20	13402	8.1	0.76706446108281
20	13916	8.2	5.8366230654474
20	14430	8.3	0.973
20	14944	8.4	6.9699102111157
20	15458	8.5	1.9294789256342
20	15972	8.6	5.1151638745841
20	16486	8.7	4.3636293521332
20	17000	8.8	0.973
20	17514	8.9	4.3788372326298
20	18028	9	5.8827692204701
20	18542	9.1	0.973
20	19173	9.2	1.4666020836456
20	19804	9.3	3.0819962765255
20	20435	9.4	10.027696167744
20	21066	9.5	1.6958160333312
20	21697	9.6	0.973
20	22328	9.7	6.632548485328
20	22959	9.8	5.7729272930007
20	23590	9.9	1.0578333475672
20	24221	10	1.1263174170445
20	24852	10.1	2.6970643478869
20	25483	10.2	6.6952959005777
20	26114	10.3	6.5169029413731
20	26745	10.4	3.6025900414767
20	27376	10.5	0.973
20	28007	10.6	3.0851464149837
20	28638	10.7	2.5974597460411
20	29269	10.8	0.973
20	29900	10.9	9.5395822188463
20	30531	11	1.3282787309519
20	31162	11.1	0.973
20	31793	11.2	8.179080421415
20	32424	11.3	4.0320125453571
20	33055	11.4	6.7800492365537
20	33686	11.5	0.973
20	34317	11.6	1.6533429242687
20	34948	11.7	4.0732756740229
20	35579	11.8	4.4483964886511
20	36210	11.9	2.1743796359013
20	36841	12	6.0422974372892
20	37472	12.1	4.1390439974373
20	38103	12.2	0.973
20	38734	12.3	4.1167496586633
20	39365	12.4	9.0598463247293
20	39996	12.5	6.1306568746574
20	40627	12.6	0.973
20	41258	12.7	0.973
20	41889	12.8	12.492330290377
20	42520	12.9	5.196126204397
20	43151	13	0.973
20	43782	13.1	5.1366221792858
20	44413	13.2	4.8150212656428
20	45044	13.3	3.3851112402157
20	45675	13.4	0.973
20	46306	13.5	0.65181696527337
20	46937	13.6	7.9652475050489
20	47568	13.7	0.973
20	48199	13.8	1.8430488376008
20	48830	13.9	5.6710146174647
20	49461	14	4.3734164966408
20	50092	14.1	3.1583204145319
20	50723	14.2	1.0793370213146
20	51354	14.3	2.9644021206317
20	51985	14.4	6.2178014614843
20	52616	14.5	3.9445394953617
20	53247	14.6	1.0478813561673
20	53878	14.7	2.4904306392927
20	54509	14.8	6.2361895484616
20	55140	14.9	0.973
20	55771	15	6.9514127336561
20	56402	15.1	0.973
20	57033	15.2	9.1965979630674
20	57664	15.3	4.2947535412596
20	58295	15.4	0.973
20	58926	15.5	4.9320554040523
20	59557	15.6	9.485347586025
20	60188	15.7	1.8335369488184
20	60819	15.8	2.2882308393966
20	61450	15.9	0.973
20	62081	16	4.1046079057083
20	62712	16.1	4.6982295885394
20	63343	16.2	0.973
20	63974	16.3	2.2227646113985
20	64605	16.4	6.7255657157952
20	65236	16.5	0.973
20	65867	16.6	2.7892825864813
20	66498	16.7	4.7762358256799
20	67129	16.8	0.95468415658012
20	67760	16.9	3.2672033464895
20	68391	17	9.4993434186751
20	69022	17.1	0.973
20	69653	17.2	5.5104179683139
20	70284	17.3	0.973
20	70915	17.4	7.1100874397117
20	71546	17.5	4.4965830905546
20	72177	17.6	0.973
20	72808	17.7	1.8556558696336
20	73439	17.8	3.5546374943321
20	74070	17.9	1.391632877712
20	74701	18	9.1653330800455
20	75332	18.1	2.3199441110011
20	75963	18.2	0.973
20	76594	18.3	6.0568696445555
20	77225	18.4	2.205755633918
20	77856	18.5	1.4641175441481
20	78487	18.6	4.8731660790484
20	79118	18.7	1.7814982189588
20	79749	18.8	3.64046460287
20	80380	18.9	5.7089616031582
20	81011	19	2.4010721774226
20	81642	19.1	0.973
20	82273	19.2	4.4798840137558
20	82904	19.3	5.3088936633732
20	83535	19.4	0.973
20	84166	19.5	8.4659158030192
20	84797	19.6	0.973
20	85428	19.7	4.6183849598141
20	85942	19.8	0.58658323079694
20	86456	19.9	6.9594265592336
20	86970	20	1.1443274758142
20	87484	20.1	5.4136898682212
20	87998	20.2	0.973
20	88512	20.3	4.8124400325596
20	89026	20.4	5.3682979224309
20	89540	20.5	0.973
20	90054	20.6	8.1255190026922
20	90568	20.7	0.973
20	91082	20.8	4.5697094372162
20	91596	20.9	5.7649267134456
20	92110	21	2.2069091538494
20	92519	21.1	6.5421387706217
20	92928	21.2	2.1323174158921
20	93337	21.3	3.7559619874555
20	93746	21.4	2.645318670746
20	94155	21.5	4.4265182942027
20	94564	21.6	0.973
20	94973	21.7	7.9498863792655
20	95382	21.8	2.0740589843324
20	95791	21.9	3.6363396556053
20	96200	22	1.0522320654132
20	96609	22.1	0.973
20	97018	22.2	3.9529639015948
20	97427	22.3	5.1226183119754
19	540	2.3	0.39619232034269
19	604	2.4	1.196364784991
19	668	2.5	0.05868417128422
19	732	2.6	0.0038223246023961
19	796	2.7	0.81656140837183
19	860	2.8	1.5644473488732
19	924	2.9	-1.0620448056589
19	988	3	1.6437883021105
19	1052	3.1	-0.36330415497627
19	1161	3.2	2.2890837354243
19	1270	3.3	-1.9174970486197
19	1379	3.4	0.73956982422757
19	1488	3.5	1.9974048661068
19	1597	3.6	-0.17071651501308
19	1706	3.7	0.6171174736502
19	1815	3.8	0.78918664255013
19	1924	3.9	-1.1087237342607
19	2033	4	1.5325934484472
19	2142	4.1	-0.15982709336544
19	2308	4.2	0.74675013518373
19	2474	4.3	0.095292744592541
19	2640	4.4	1.4404468822834
19	2806	4.5	-0.26547016077487
19	2972	4.6	-0.54585400526737
19	3138	4.7	1.2093601618397
19	3304	4.8	1.4515670837605
19	3470	4.9	-0.52749757060315
19	3636	5	-0.37362865160496
19	3802	5.1	0.66397215984324
19	4037	5.2	0.0097118418853981
19	4272	5.3	0.46342168730693
19	4507	5.4	0.045620075916375
19	4742	5.5	0.58584589623958
19	4977	5.6	0.48871374859907
19	5212	5.7	-0.5584195502966
19	5447	5.8	0.98686194817464
19	5682	5.9	0.18199475940801
19	5917	6	-0.81310534384173
19	6152	6.1	1.0873886043656
19	6468	6.2	0.29344909219368
19	6784	6.3	0.16337909217249
19	7100	6.4	-0.4725748840287
19	7416	6.5	0.93853964483689
19	7732	6.6	1.4583741303167
19	8048	6.7	-1.8785282948504
19	8364	6.8	0.83422412375779
19	8680	6.9	-0.13063186817728
19	8996	7	0.2159223409511
19	9312	7.1	-0.16648599132349
19	9721	7.2	0.71663775912842
19	10130	7.3	1.236313304182
19	10539	7.4	-0.4421529095038
19	10948	7.5	0.81096693076194
19	11357	7.6	-0.52588761944559
19	11766	7.7	0.76322538371528
19	12175	7.8	-0.94836390047181
19	12584	7.9	0.76418357642641
19	12993	8	1.0766331701901
19	13402	8.1	-0.41478324250747
19	13916	8.2	0.68042346367005
19	14430	8.3	-1.058906229816
19	14944	8.4	0.92648799179134
19	15458	8.5	-0.16351829623922
19	15972	8.6	0.523099689639
19	16486	8.7	0.35898492059484
19	17000	8.8	-0.5143230214437
19	17514	8.9	0.36303979200909
19	18028	9	0.68277686978398
19	18542	9.1	-0.51889933297883
19	19173	9.2	-0.26491766285368
19	19804	9.3	0.08338618735646
19	20435	9.4	1.5638296654687
19	21066	9.5	-0.21849825120331
19	21697	9.6	-1.1475618418444
19	22328	9.7	0.8413462046256
19	22959	9.8	0.65257816465483
19	23590	9.9	-0.35515050073947
19	24221	10	-0.3399690641983
19	24852	10.1	-0.0028769148759622
19	25483	10.2	0.84865893512475
19	26114	10.3	0.80457557588179
19	26745	10.4	0.18368219360628
19	27376	10.5	-0.8613602707365
19	28007	10.6	0.076549106838044
19	28638	10.7	-0.027457990446784
19	29269	10.8	-0.61694895718322
19	29900	10.9	1.445616007411
19	30531	11	-0.29930936204398
19	31162	11.1	-0.93771804994425
19	31793	11.2	1.157154146847
19	32424	11.3	0.27398611281363
19	33055	11.4	0.85104595913567
19	33686	11.5	-1.344997230274
19	34317	11.6	-0.22962519723084
19	34948	11.7	0.28482120753761
19	35579	11.8	0.36279672305522
19	36210	11.9	-0.11997105022505
19	36841	12	0.69744625238563
19	37472	12.1	0.29291768390976
19	38103	12.2	-1.5101033079346
19	38734	12.3	0.29399231494533
19	39365	12.4	1.3324710272087
19	39996	12.5	0.7084452818113
19	40627	12.6	-0.88668171684724
19	41258	12.7	-1.1783486891653
19	41889	12.8	2.0485006931394
19	42520	12.9	0.50873521825608
19	43151	13	-1.3771498812524
19	43782	13.1	0.5013253908875
19	44413	13.2	0.43110009840976
19	45044	13.3	0.12950958325554
19	45675	13.4	-0.56846918370312
19	46306	13.5	-0.44460195460299
19	46937	13.6	1.0925628767499
19	47568	13.7	-0.50316099312131
19	48199	13.8	-0.19355606811526
19	48830	13.9	0.6105531637456
19	49461	14	0.33582698721936
19	50092	14.1	0.080275496997047
19	50723	14.2	-0.35575207334031
19	51354	14.3	0.040654527396988
19	51985	14.4	0.71991260478587
19	52616	14.5	0.2424439610699
19	53247	14.6	-0.36329586916828
19	53878	14.7	-0.060636776916745
19	54509	14.8	0.72003356324199
19	55140	14.9	-0.99251155591222
19	55771	15	0.87044256053662
19	56402	15.1	-1.6301777340548
19	57033	15.2	1.3428345585021
19	57664	15.3	0.3147604466567
19	58295	15.4	-0.98562025226656
19	58926	15.5	0.45098270417675
19	59557	15.6	1.3912116873119
19	60188	15.7	-0.20134313799279
19	60819	15.8	-0.10629227853091
19	61450	15.9	-0.63856036367397
19	62081	16	0.27414106726127
19	62712	16.1	0.39604884846192
19	63343	16.2	-0.92608776482315
19	63974	16.3	-0.11721755969884
19	64605	16.4	0.8203539305941
19	65236	16.5	-0.77054087994632
19	65867	16.6	0.0013419948451698
19	66498	16.7	0.41541128828172
19	67129	16.8	-0.38308878766689
19	67760	16.9	0.10097002028569
19	68391	17	1.3914871693578
19	69022	17.1	-0.98491587820327
19	69653	17.2	0.5646818405161
19	70284	17.3	-0.90577962644659
19	70915	17.4	0.89804767189417
19	71546	17.5	0.351697997746
19	72177	17.6	-0.97908928794983
19	72808	17.7	-0.19490580073729
19	73439	17.8	0.15991852781251
19	74070	17.9	-0.29175424405356
19	74701	18	1.3226298801549
19	75332	18.1	-0.1008078073404
19	75963	18.2	-0.75765107481178
19	76594	18.3	0.67733661826257
19	77225	18.4	-0.12402288130811
19	77856	18.5	-0.27797939106158
19	78487	18.6	0.43076665114704
19	79118	18.7	-0.21226344846518
19	79749	18.8	0.17434887628948
19	80380	18.9	0.60117109377249
19	81011	19	-0.085152317834165
19	81642	19.1	-1.0804589358836
19	82273	19.2	0.3501819969032
19	82904	19.3	0.5198780425383
19	83535	19.4	-0.94148790763832
19	84166	19.5	1.1739684290242
19	84797	19.6	-0.9036830323668
19	85428	19.7	0.37786926851673
19	85942	19.8	-0.46097144175043
19	86456	19.9	0.86213961841594
19	86970	20	-0.34540524596729
19	87484	20.1	0.53984570120587
19	87998	20.2	-0.71402102848147
19	88512	20.3	0.41665773340043
19	89026	20.4	0.52904639283287
19	89540	20.5	-1.2130749249699
19	90054	20.6	1.1016202883657
19	90568	20.7	-1.0034463846714
19	91082	20.8	0.36732682992056
19	91596	20.9	0.61213172177069
19	92110	21	-0.1256358704374
19	92519	21.1	0.76876327359258
19	92928	21.2	-0.14274285908321
19	93337	21.3	0.19241741716396
19	93746	21.4	-0.037072236393598
19	94155	21.5	0.32959451798817
19	94564	21.6	-1.0023850375321
19	94973	21.7	1.056463713455
19	95382	21.8	-0.15576856085101
19	95791	21.9	0.16621038352607
19	96200	22	-0.36651561090256
19	96609	22.1	-0.4957394684898
19	97018	22.2	0.23435467954261
19	97427	22.3	0.4737984586507
18	476	2.2	17.173140912112
18	540	2.3	17.212760144147
18	604	2.4	17.332396622646
18	668	2.5	17.338265039774
18	732	2.6	17.338647272234
18	796	2.7	17.420303413072
18	860	2.8	17.576748147959
18	924	2.9	17.470543667393
18	988	3	17.634922497604
18	1052	3.1	17.598592082106
18	1161	3.2	17.827500455649
18	1270	3.3	17.635750750787
18	1379	3.4	17.70970773321
18	1488	3.5	17.90944821982
18	1597	3.6	17.892376568319
18	1706	3.7	17.954088315684
18	1815	3.8	18.033006979939
18	1924	3.9	17.922134606513
18	2033	4	18.075393951358
18	2142	4.1	18.059411242021
18	2308	4.2	18.134086255539
18	2474	4.3	18.143615529999
18	2640	4.4	18.287660218227
18	2806	4.5	18.26111320215
18	2972	4.6	18.206527801623
18	3138	4.7	18.327463817807
18	3304	4.8	18.472620526183
18	3470	4.9	18.419870769123
18	3636	5	18.382507903962
18	3802	5.1	18.448905119946
18	4037	5.2	18.449876304135
18	4272	5.3	18.496218472866
18	4507	5.4	18.500780480457
18	4742	5.5	18.559365070081
18	4977	5.6	18.608236444941
18	5212	5.7	18.552394489911
18	5447	5.8	18.651080684729
18	5682	5.9	18.66928016067
18	5917	6	18.587969626286
18	6152	6.1	18.696708486722
18	6468	6.2	18.726053395942
18	6784	6.3	18.742391305159
18	7100	6.4	18.695133816756
18	7416	6.5	18.78898778124
18	7732	6.6	18.934825194271
18	8048	6.7	18.746972364786
18	8364	6.8	18.830394777162
18	8680	6.9	18.817331590344
18	8996	7	18.838923824439
18	9312	7.1	18.822275225307
18	9721	7.2	18.89393900122
18	10130	7.3	19.017570331638
18	10539	7.4	18.973355040688
18	10948	7.5	19.054451733764
18	11357	7.6	19.001862971819
18	11766	7.7	19.078185510191
18	12175	7.8	18.983349120144
18	12584	7.9	19.059767477786
18	12993	8	19.167430794805
18	13402	8.1	19.125952470555
18	13916	8.2	19.193994816922
18	14430	8.3	19.08810419394
18	14944	8.4	19.180752993119
18	15458	8.5	19.164401163495
18	15972	8.6	19.216711132459
18	16486	8.7	19.252609624519
18	17000	8.8	19.201177322374
18	17514	8.9	19.237481301575
18	18028	9	19.305758988553
18	18542	9.1	19.253869055256
18	19173	9.2	19.22737728897
18	19804	9.3	19.235715907706
18	20435	9.4	19.392098874253
18	21066	9.5	19.370249049132
18	21697	9.6	19.255492864948
18	22328	9.7	19.339627485411
18	22959	9.8	19.404885301876
18	23590	9.9	19.369370251802
18	24221	10	19.335373345382
18	24852	10.1	19.335085653895
18	25483	10.2	19.419951547407
18	26114	10.3	19.500409104995
18	26745	10.4	19.518777324356
18	27376	10.5	19.432641297282
18	28007	10.6	19.440296207966
18	28638	10.7	19.437550408921
18	29269	10.8	19.375855513203
18	29900	10.9	19.520417113944
18	30531	11	19.49048617774
18	31162	11.1	19.396714372745
18	31793	11.2	19.51242978743
18	32424	11.3	19.539828398711
18	33055	11.4	19.624932994625
18	33686	11.5	19.490433271598
18	34317	11.6	19.467470751875
18	34948	11.7	19.495952872628
18	35579	11.8	19.532232544934
18	36210	11.9	19.520235439911
18	36841	12	19.58998006515
18	37472	12.1	19.619271833541
18	38103	12.2	19.468261502747
18	38734	12.3	19.497660734242
18	39365	12.4	19.630907836963
18	39996	12.5	19.701752365144
18	40627	12.6	19.613084193459
18	41258	12.7	19.495249324543
18	41889	12.8	19.700099393857
18	42520	12.9	19.750972915682
18	43151	13	19.613257927557
18	43782	13.1	19.663390466646
18	44413	13.2	19.706500476487
18	45044	13.3	19.719451434812
18	45675	13.4	19.662604516442
18	46306	13.5	19.618144320982
18	46937	13.6	19.727400608657
18	47568	13.7	19.677084509344
18	48199	13.8	19.657728902533
18	48830	13.9	19.718784218908
18	49461	14	19.752366917629
18	50092	14.1	19.760394467329
18	50723	14.2	19.724819259995
18	51354	14.3	19.728884712735
18	51985	14.4	19.800875973213
18	52616	14.5	19.82512036932
18	53247	14.6	19.788790782404
18	53878	14.7	19.782727104712
18	54509	14.8	19.854730461036
18	55140	14.9	19.755479305445
18	55771	15	19.842523561499
18	56402	15.1	19.679505788093
18	57033	15.2	19.813789243943
18	57664	15.3	19.845265288609
18	58295	15.4	19.746703263382
18	58926	15.5	19.7918015338
18	59557	15.6	19.930922702531
18	60188	15.7	19.910788388732
18	60819	15.8	19.900159160879
18	61450	15.9	19.836303124511
18	62081	16	19.863717231238
18	62712	16.1	19.903322116084
18	63343	16.2	19.810713339601
18	63974	16.3	19.798991583632
18	64605	16.4	19.881026976691
18	65236	16.5	19.803972888696
18	65867	16.6	19.804107088181
18	66498	16.7	19.845648217009
18	67129	16.8	19.807339338242
18	67760	16.9	19.817436340271
18	68391	17	19.956585057207
18	69022	17.1	19.858093469386
18	69653	17.2	19.914561653438
18	70284	17.3	19.823983690793
18	70915	17.4	19.913788457983
18	71546	17.5	19.948958257757
18	72177	17.6	19.851049328962
18	72808	17.7	19.831558748889
18	73439	17.8	19.84755060167
18	74070	17.9	19.818375177264
18	74701	18	19.95063816528
18	75332	18.1	19.940557384546
18	75963	18.2	19.864792277065
18	76594	18.3	19.932525938891
18	77225	18.4	19.92012365076
18	77856	18.5	19.892325711654
18	78487	18.6	19.935402376769
18	79118	18.7	19.914176031922
18	79749	18.8	19.931610919551
18	80380	18.9	19.991728028928
18	81011	19	19.983212797145
18	81642	19.1	19.875166903557
18	82273	19.2	19.910185103247
18	82904	19.3	19.962172907501
18	83535	19.4	19.868024116737
18	84166	19.5	19.985420959639
18	84797	19.6	19.895052656403
18	85428	19.7	19.932839583254
18	85942	19.8	19.886742439079
18	86456	19.9	19.972956400921
18	86970	20	19.938415876324
18	87484	20.1	19.992400446445
18	87998	20.2	19.920998343597
18	88512	20.3	19.962664116937
18	89026	20.4	20.01556875622
18	89540	20.5	19.894261263723
18	90054	20.6	20.00442329256
18	90568	20.7	19.904078654092
18	91082	20.8	19.940811337084
18	91596	20.9	20.002024509262
18	92110	21	19.989460922218
18	92519	21.1	20.066337249577
18	92928	21.2	20.052062963669
18	93337	21.3	20.071304705385
18	93746	21.4	20.067597481746
18	94155	21.5	20.100556933545
18	94564	21.6	20.000318429791
18	94973	21.7	20.105964801137
18	95382	21.8	20.090387945052
18	95791	21.9	20.107008983404
18	96200	22	20.070357422314
18	96609	22.1	20.020783475465
18	97018	22.2	20.044218943419
18	97427	22.3	20.091598789284
17	412	2.1	416.34012864494
17	476	2.2	416.34012864494
17	540	2.3	414.62285787211
17	604	2.4	412.90162527602
17	668	2.5	411.16842933386
17	732	2.6	409.43464656479
17	796	2.7	407.70082557343
17	860	2.8	405.95883917396
17	924	2.9	404.20120869563
17	988	3	402.45419839746
17	1052	3.1	400.69075063091
17	1161	3.2	398.93093581426
17	1270	3.3	397.14823073767
17	1379	3.4	395.38470014789
17	1488	3.5	393.61377404642
17	1597	3.6	391.82287440012
17	1706	3.7	390.03368187591
17	1815	3.8	388.23831833263
17	1924	3.9	386.43506312199
17	2033	4	384.64289486902
17	2142	4.1	382.83540106816
17	2308	4.2	381.02950549792
17	2474	4.3	379.21614261469
17	2640	4.4	377.40182682805
17	2806	4.5	375.57310693593
17	2972	4.6	373.74704167845
17	3138	4.7	371.92643482334
17	3304	4.8	370.09373467167
17	3470	4.9	368.24651921531
17	3636	5	366.4045786016
17	3802	5.1	364.56637418015
17	4037	5.2	362.7215302046
17	4272	5.3	360.87658911307
17	4507	5.4	359.02701392157
17	4742	5.5	357.17698254081
17	4977	5.6	355.32109284887
17	5212	5.7	353.46031614272
17	5447	5.8	351.60512349121
17	5682	5.9	349.74006246915
17	5917	6	347.87318154541
17	6152	6.1	346.01443147
17	6468	6.2	344.14480778284
17	6784	6.3	342.27224967877
17	7100	6.4	340.398057825
17	7416	6.5	338.52859160086
17	7732	6.6	336.64974021701
17	8048	6.7	334.75630545973
17	8364	6.8	332.88165551155
17	8680	6.9	330.99866353256
17	8996	7	329.1169778393
17	9312	7.1	327.23313297709
17	9721	7.2	325.35095293281
17	10130	7.3	323.4616066917
17	10539	7.4	321.5598976294
17	10948	7.5	319.66260998467
17	11357	7.6	317.75721287519
17	11766	7.7	315.85707450925
17	12175	7.8	313.949304082
17	12584	7.9	312.05101705453
17	12993	8	310.14508838406
17	13402	8.1	308.22839365346
17	13916	8.2	306.31584665066
17	14430	8.3	304.39649558486
17	14944	8.4	302.48773331425
17	15458	8.5	300.56970639742
17	15972	8.6	298.65331462231
17	16486	8.7	296.73169198226
17	17000	8.8	294.80647958355
17	17514	8.9	292.88641028531
17	18028	9	290.96271068074
17	18542	9.1	289.03218347969
17	19173	9.2	287.10684514108
17	19804	9.3	285.18415591228
17	20435	9.4	283.26063284264
17	21066	9.5	281.32147187081
17	21697	9.6	279.38449582638
17	22328	9.7	277.45899511089
17	22959	9.8	275.52508114559
17	23590	9.9	273.58464156325
17	24221	10	271.64775339634
17	24852	10.1	269.71426483431
17	25483	10.2	267.7808050407
[...]
68	107647	28.5	0.67649970509464
68	107678	28.6	-0.14223388765519
68	107709	28.7	0.49090919251547
68	107740	28.8	0.088514834282165
68	107771	28.9	-1.1614323407364
68	107802	29	0.96343471410087
68	107833	29.1	-0.16871337359937
68	107864	29.2	0.23966043518595
68	107874	29.3	1.1208578025533
68	107884	29.4	-0.16543941076382
68	107894	29.5	-0.27639993445479
68	107904	29.6	0.98443129123186
68	107914	29.7	-0.025693250354379
68	107924	29.8	-1.1135758945253
68	107934	29.9	0.27271925592796
68	107944	30	0.34595041954891
68	107954	30.1	0.10844865485559
68	107964	30.2	0.12542159801814
68	107974	30.3	0.20292689392811
68	107984	30.4	-0.080396738275894
68	107994	30.5	-0.95701873041691
67	19173	9.2	13.736158777315
67	19804	9.3	13.845872554664
67	20435	9.4	14.021999628905
67	21066	9.5	13.996333517674
67	21697	9.6	14.186218313062
67	22328	9.7	14.31477064838
67	22959	9.8	14.373384712058
67	23590	9.9	14.406614882831
67	24221	10	14.513425750901
67	24852	10.1	14.695527541664
67	25483	10.2	14.662661504678
67	26114	10.3	14.878947739999
67	26745	10.4	14.846491623065
67	27376	10.5	14.940093360819
67	28007	10.6	14.937070531028
67	28638	10.7	15.115721371267
67	29269	10.8	15.206005008595
67	29900	10.9	15.275843578495
67	30531	11	15.422333566814
67	31162	11.1	15.547003690376
67	31793	11.2	15.475298155716
67	32424	11.3	15.57769993954
67	33055	11.4	15.727881185804
67	33686	11.5	15.824909558729
67	34317	11.6	15.830316070211
67	34948	11.7	15.842753134364
67	35579	11.8	15.919263866078
67	36210	11.9	15.970125471949
67	36841	12	16.062311678878
67	37472	12.1	16.159846124191
67	38103	12.2	16.065435961583
67	38734	12.3	16.204733082396
67	39365	12.4	16.33006346255
67	39996	12.5	16.28574725581
67	40627	12.6	16.424092394093
67	41258	12.7	16.354055392905
67	41889	12.8	16.325444551198
67	42520	12.9	16.506670069184
67	43151	13	16.659101049656
67	43782	13.1	16.724578960168
67	44413	13.2	16.721605512278
67	45044	13.3	16.732271258299
67	45675	13.4	16.656657848106
67	46306	13.5	16.903805334724
67	46937	13.6	16.945628437092
67	47568	13.7	16.887186854898
67	48199	13.8	16.97053393003
67	48830	13.9	17.142458062898
67	49461	14	17.008463349384
67	50092	14.1	17.070875643584
67	50723	14.2	17.157423683608
67	51354	14.3	17.325947639289
67	51985	14.4	17.177404465703
67	52616	14.5	17.327318116132
67	53247	14.6	17.215437792714
67	53878	14.7	17.289891896011
67	54509	14.8	17.449914932353
67	55140	14.9	17.45199525435
67	55771	15	17.503238490715
67	56402	15.1	17.59517263994
67	57033	15.2	17.556730941568
67	57664	15.3	17.67317303618
67	58295	15.4	17.65593364944
67	58926	15.5	17.53849023095
67	59557	15.6	17.697000060296
67	60188	15.7	17.701688176913
67	60819	15.8	17.827609357455
67	61450	15.9	17.827627995693
67	62081	16	17.876939627395
67	62712	16.1	17.796682165628
67	63343	16.2	17.939015127837
67	63974	16.3	17.943845971439
67	64605	16.4	17.976619637428
67	65236	16.5	17.976038790869
67	65867	16.6	18.017161959328
67	66498	16.7	18.050346579132
67	67129	16.8	18.101574252921
67	67760	16.9	18.092476836677
67	68391	17	18.144984753795
67	69022	17.1	18.110754687274
67	69653	17.2	18.088124922951
67	70284	17.3	18.207119314304
67	70915	17.4	18.275558098564
67	71546	17.5	18.28348021955
67	72177	17.6	18.383173252858
67	72808	17.7	18.328869873546
67	73439	17.8	18.4698438614
67	74070	17.9	18.310874378019
67	74701	18	18.335723224271
67	75332	18.1	18.407601999848
67	75963	18.2	18.444402551958
67	76594	18.3	18.486762866428
67	77225	18.4	18.465439171407
67	77856	18.5	18.510080135325
67	78487	18.6	18.480212818119
67	79118	18.7	18.626257964791
67	79749	18.8	18.526158920026
67	80380	18.9	18.668691414598
67	81011	19	18.614061302281
67	81642	19.1	18.576311486444
67	82273	19.2	18.647945026171
67	82904	19.3	18.606705140146
67	83535	19.4	18.639773044887
67	84166	19.5	18.728961856149
67	84797	19.6	18.706336868628
67	85428	19.7	18.778135271906
67	85942	19.8	18.701199186254
67	86456	19.9	18.940178023826
67	86970	20	18.778500087931
67	87484	20.1	18.835536776072
67	87998	20.2	18.856242963917
67	88512	20.3	18.920737167362
67	89026	20.4	18.895637230198
67	89540	20.5	18.890414600018
67	90054	20.6	18.775558112204
67	90568	20.7	18.951771326942
67	91082	20.8	18.864276903799
67	91596	20.9	18.969598527634
67	92110	21	18.988955402393
67	92519	21.1	18.952369686898
67	92928	21.2	19.051925625344
67	93337	21.3	18.975739066095
67	93746	21.4	19.038383055752
67	94155	21.5	19.076778675694
67	94564	21.6	19.082122935706
67	94973	21.7	19.099697410734
67	95382	21.8	18.98630401698
67	95791	21.9	18.977867282251
67	96200	22	19.131395140757
67	96609	22.1	19.222742760581
67	97018	22.2	19.267131873419
67	97427	22.3	19.147140177922
67	97836	22.4	19.134726289605
67	98152	22.5	19.148236847481
67	98468	22.6	19.135831432988
67	98784	22.7	19.187103397453
67	99100	22.8	19.171322201615
67	99416	22.9	19.23979995586
67	99732	23	19.139999360609
67	100048	23.1	19.243879413332
67	100364	23.2	19.364495751339
67	100680	23.3	19.224452670881
67	100996	23.4	19.307394545572
67	101312	23.5	19.288790014904
67	101628	23.6	19.392520619695
67	101944	23.7	19.484432592469
67	102260	23.8	19.343190520033
67	102495	23.9	19.30105767734
67	102730	24	19.330583130018
67	102965	24.1	19.31458511345
67	103200	24.2	19.454387202323
67	103435	24.3	19.438366500857
67	103670	24.4	19.4379876953
67	103905	24.5	19.487559536542
67	104140	24.6	19.383756023527
67	104375	24.7	19.430896217293
67	104541	24.8	19.513375610245
67	104707	24.9	19.434015343641
67	104873	25	19.411435883519
67	105039	25.1	19.546220822338
67	105148	25.2	19.683974836407
67	105257	25.3	19.606775425277
67	105366	25.4	19.557011415348
67	105475	25.5	19.646069507607
67	105584	25.6	19.562191672085
67	105693	25.7	19.651009159656
67	105802	25.8	19.533329607577
67	105911	25.9	19.641403046782
67	106020	26	19.765613953267
67	106129	26.1	19.534561545499
67	106238	26.2	19.640852344392
67	106347	26.3	19.572507110175
67	106456	26.4	19.698376585394
67	106565	26.5	19.617107661119
67	106629	26.6	19.636423315099
67	106693	26.7	19.719227063787
67	106757	26.8	19.756669154884
67	106821	26.9	19.783008313981
67	106885	27	19.74516495124
67	106949	27.1	19.686650907418
67	107013	27.2	19.836020091185
67	107077	27.3	19.698377052259
67	107141	27.4	19.776199160177
67	107205	27.5	19.675341522491
67	107269	27.6	19.740827268977
67	107333	27.7	19.749067712793
67	107397	27.8	19.828401376904
67	107461	27.9	19.87309368394
67	107492	28	19.764476071071
67	107523	28.1	19.88742172187
67	107554	28.2	19.80222103207
67	107585	28.3	19.962308642516
67	107616	28.4	19.85304073039
67	107647	28.5	19.920690700899
67	107678	28.6	19.906467312134
67	107709	28.7	19.955558231385
67	107740	28.8	19.964409714814
67	107771	28.9	19.84826648074
67	107802	29	19.94460995215
67	107833	29.1	19.92773861479
67	107864	29.2	19.951704658309
67	107874	29.3	20.063790438564
67	107884	29.4	20.047246497488
67	107894	29.5	20.019606504042
67	107904	29.6	20.118049633165
67	107914	29.7	20.11548030813
67	107924	29.8	20.004122718677
67	107934	29.9	20.03139464427
67	107944	30	20.065989686225
67	107954	30.1	20.076834551711
67	107964	30.2	20.089376711512
67	107974	30.3	20.109669400905
67	107984	30.4	20.101629727078
67	107994	30.5	20.005927854036
66	18542	9.1	416.34012864494
66	19173	9.2	416.34012864494
66	19804	9.3	414.96654741598
66	20435	9.4	413.58199508603
66	21066	9.5	412.17983049293
66	21697	9.6	410.78023244621
66	22328	9.7	409.36164639893
66	22959	9.8	407.93020544238
66	23590	9.9	406.49290322732
66	24221	10	405.052278079
66	24852	10.1	403.6009721133
66	25483	10.2	402.13145642786
66	26114	10.3	400.66522726322
66	26745	10.4	399.17737002062
66	27376	10.5	397.69275830784
66	28007	10.6	396.1987866574
66	28638	10.7	394.7051172823
66	29269	10.8	393.19358327383
66	29900	10.9	391.67302112935
66	30531	11	390.14547530405
66	31162	11.1	388.60328084943
66	31793	11.2	387.04861969693
66	32424	11.3	385.50112891702
66	33055	11.4	383.94339821703
66	33686	11.5	382.37064977124
66	34317	11.6	380.78819873291
66	34948	11.7	379.20520705707
66	35579	11.8	377.62097170618
66	36210	11.9	376.02908547512
66	36841	12	374.43211321176
66	37472	12.1	372.82592256025
66	38103	12.2	371.20997871023
66	38734	12.3	369.60347563833
66	39365	12.4	367.98304320571
66	39996	12.5	366.35007805122
66	40627	12.6	364.72154440562
66	41258	12.7	363.07917659516
66	41889	12.8	361.44381230815
66	42520	12.9	359.81130903315
66	43151	13	358.16068366348
66	43782	13.1	356.49481558026
66	44413	13.2	354.82239987115
66	45044	13.3	353.15028149934
66	45675	13.4	351.47709657982
66	46306	13.5	349.81147281059
66	46937	13.6	348.12113491612
66	47568	13.7	346.42661481691
66	48199	13.8	344.7379387285
66	48830	13.9	343.04092814282
66	49461	14	341.32672557752
66	50092	14.1	339.62592214557
66	50723	14.2	337.91887764164
66	51354	14.3	336.20317855202
66	51985	14.4	334.47062749193
66	52616	14.5	332.7529303745
66	53247	14.6	331.02024227017
66	53878	14.7	329.29874191598
66	54509	14.8	327.56979633926
66	55140	14.9	325.82484886256
66	55771	15	324.07969335891
66	56402	15.1	322.32941366088
66	57033	15.2	320.56994077982
66	57664	15.3	318.81431197164
66	58295	15.4	317.04703924771
66	58926	15.5	315.28149041898
66	59557	15.6	313.52768563584
66	60188	15.7	311.75803026961
66	60819	15.8	309.98790610353
66	61450	15.9	308.20519013704
66	62081	16	306.42247230677
66	62712	16.1	304.63482343771
66	63343	16.2	302.85520011238
66	63974	16.3	301.06134384987
66	64605	16.4	299.26700451517
66	65236	16.5	297.46938789655
66	65867	16.6	295.67182936112
66	66498	16.7	293.87015861257
66	67129	16.8	292.06516948575
66	67760	16.9	290.25505772077
66	68391	17	288.44585567447
66	69022	17.1	286.6314029689
66	69653	17.2	284.82037318365
66	70284	17.3	283.01160631774
66	70915	17.4	281.19094031285
66	71546	17.5	279.36343060217
66	72177	17.6	277.53512869938
66	72808	17.7	275.69685774473
66	73439	17.8	273.86401699103
66	74070	17.9	272.01707919414
66	74701	18	270.1860379446
66	75332	18.1	268.35251187311
66	75963	18.2	266.51179810538
66	76594	18.3	264.66740437526
66	77225	18.4	262.81877472055
66	77856	18.5	260.97227738156
66	78487	18.6	259.12131605877
66	79118	18.7	257.27334139237
66	79749	18.8	255.41076257969
66	80380	18.9	253.55819341899
66	81011	19	251.69137136837
66	81642	19.1	249.83001219118
66	82273	19.2	247.97242790035
66	82904	19.3	246.10768043623
66	83535	19.4	244.2470568567
66	84166	19.5	242.3831265701
66	84797	19.6	240.51027762735
66	85428	19.7	238.63969112629
66	85942	19.8	236.761924966
66	86456	19.9	234.89185222021
66	86970	20	232.99788219348
66	87484	20.1	231.12007955251
66	87998	20.2	229.2365733866
66	88512	20.3	227.35099665413
66	89026	20.4	225.458970664
66	89540	20.5	223.56945460428
66	90054	20.6	221.6804607944
66	90568	20.7	219.80295234358
66	91082	20.8	217.90782301578
66	91596	20.9	216.02144290959
66	92110	21	214.12453090669
66	92519	21.1	212.22568326514
66	92928	21.2	210.33049410285
66	93337	21.3	208.42534959784
66	93746	21.4	206.52782355658
66	94155	21.5	204.62403327437
66	94564	21.6	202.71640352702
66	94973	21.7	200.80823936714
66	95382	21.8	198.8983178041
66	95791	21.9	196.9997352944
66	96200	22	195.10199643689
66	96609	22.1	193.1889051808
66	97018	22.2	191.26667939315
66	97427	22.3	189.34001480618
66	97836	22.4	187.42534908609
66	98152	22.5	185.51192472351
66	98468	22.6	183.59714933923
66	98784	22.7	181.68361446511
66	99100	22.8	179.76495252386
66	99416	22.9	177.8478686624
66	99732	23	175.92393719825
66	100048	23.1	174.00998554187
66	100364	23.2	172.08564614226
66	100680	23.3	170.14924541309
66	100996	23.4	168.22684863872
66	101312	23.5	166.2961578861
66	101628	23.6	164.36732753961
66	101944	23.7	162.4281243943
66	102260	23.8	160.47973028356
66	102495	23.9	158.54546002378
66	102730	24	156.615402942
66	102965	24.1	154.68239338942
66	103200	24.2	152.75098359815
66	103435	24.3	150.80559395063
66	103670	24.4	148.86180633285
66	103905	24.5	146.91805659467
66	104140	24.6	144.9693497974
66	104375	24.7	143.0310230896
66	104541	24.8	141.08798248133
66	104707	24.9	139.13669414182
66	104873	25	137.19334162878
66	105039	25.1	135.2522470048
66	105148	25.2	133.29767422693
66	105257	25.3	131.32932639513
66	105366	25.4	129.36869830971
66	105475	25.5	127.41304649975
66	105584	25.6	125.44848910522
66	105693	25.7	123.49231928265
66	105802	25.8	121.52726793537
66	105911	25.9	119.57398424646
66	106020	26	117.60989348623
66	106129	26.1	115.63338194868
66	106238	26.2	113.67997506908
66	106347	26.3	111.7159393777
66	106456	26.4	109.75873803735
66	106565	26.5	107.78895006698
66	106629	26.6	105.82728878404
66	106693	26.7	103.86369598442
66	106757	26.8	101.8918230188
66	106821	26.9	99.916205938518
66	106885	27	97.937955008765
66	106949	27.1	95.963488319828
66	107013	27.2	93.994872887675
66	107077	27.3	92.011320913922
66	107141	27.4	90.041532896863
66	107205	27.5	88.063962865315
66	107269	27.6	86.096478343127
66	107333	27.7	84.122445411476
66	107397	27.8	82.147588456228
66	107461	27.9	80.164798334685
66	107492	28	78.177539095172
66	107523	28.1	76.201141342964
66	107554	28.2	74.2124493358
66	107585	28.3	72.232277182701
66	107616	28.4	70.236096672371
66	107647	28.5	68.250842677631
66	107678	28.6	66.258823856483
66	107709	28.7	64.268227338335
66	107740	28.8	62.27272185209
66	107771	28.9	60.27633123983
66	107802	29	58.291554658012
66	107833	29.1	56.297143972074
66	107864	29.2	54.304420377316
66	107874	29.3	52.309300238658
66	107884	29.4	50.302971804706
66	107894	29.5	48.29829772313
66	107904	29.6	46.296387571179
66	107914	29.7	44.284633354633
66	107924	29.8	42.273136064109
66	107934	29.9	40.272774251637
66	107944	30	38.269685315397
66	107954	30.1	36.263136962226
66	107964	30.2	34.255504149863
66	107974	30.3	32.246617153156
66	107984	30.4	30.235700938697
66	107994	30.5	28.225588671341
65	18542	9.1	26.697598627787
65	19173	9.2	26.697598627787
65	19804	9.3	26.710418673059
65	20435	9.4	26.723341114905
65	21066	9.5	26.736427937281
65	21697	9.6	26.74949080531
65	22328	9.7	26.762730894039
65	22959	9.8	26.776090961489
65	23590	9.9	26.789505733822
65	24221	10	26.802951520086
65	24852	10.1	26.81649699362
65	25483	10.2	26.830212423926
65	26114	10.3	26.843897180148
65	26745	10.4	26.857783797704
65	27376	10.5	26.871640123757
65	28007	10.6	26.885583808914
65	28638	10.7	26.899524672844
65	29269	10.8	26.913632272751
65	29900	10.9	26.927824134958
65	30531	11	26.942081177951
65	31162	11.1	26.956474940991
65	31793	11.2	26.970985059459
65	32424	11.3	26.985428254691
65	33055	11.4	26.999967022165
65	33686	11.5	27.014645954762
65	34317	11.6	27.029415444563
65	34948	11.7	27.044189980296
65	35579	11.8	27.058976123621
65	36210	11.9	27.073833674904
65	36841	12	27.08873869565
65	37472	12.1	27.103729754376
65	38103	12.2	27.118811842626
65	38734	12.3	27.133805817265
65	39365	12.4	27.148929798801
65	39996	12.5	27.164170751988
65	40627	12.6	27.179370344573
65	41258	12.7	27.194699055566
65	41889	12.8	27.209962400575
65	42520	12.9	27.225199042901
65	43151	13	27.240604824169
65	43782	13.1	27.25615287025
65	44413	13.2	27.271762027285
65	45044	13.3	27.287368409183
65	45675	13.4	27.30298474549
65	46306	13.5	27.318530511316
65	46937	13.6	27.334306941479
65	47568	13.7	27.350122405412
65	48199	13.8	27.365883325441
65	48830	13.9	27.381722033831
65	49461	14	27.397721200119
65	50092	14.1	27.41359530828
65	50723	14.2	27.429527666236
65	51354	14.3	27.445540800034
65	51985	14.4	27.461711218323
65	52616	14.5	27.477743000314
65	53247	14.6	27.493914697678
65	53878	14.7	27.509981976417
65	54509	14.8	27.526118743649
65	55140	14.9	27.542404861409
65	55771	15	27.558692920748
65	56402	15.1	27.575028805728
65	57033	15.2	27.591450493441
65	57664	15.3	27.607836303269
65	58295	15.4	27.624330789253
65	58926	15.5	27.640809185606
65	59557	15.6	27.657177971262
65	60188	15.7	27.67369469516
65	60819	15.8	27.690215794508
65	61450	15.9	27.706854416903
65	62081	16	27.723493056693
65	62712	16.1	27.740177719346
65	63343	16.2	27.756787477194
65	63974	16.3	27.773530075311
65	64605	16.4	27.790277182085
65	65236	16.5	27.807054876732
65	65867	16.6	27.823832029271
65	66498	16.7	27.840647562327
65	67129	16.8	27.857494066803
65	67760	16.9	27.874388382396
65	68391	17	27.891274207311
65	69022	17.1	27.908209038204
65	69653	17.2	27.925111921955
65	70284	17.3	27.941993685201
65	70915	17.4	27.958986506678
65	71546	17.5	27.976043202512
65	72177	17.6	27.993107292113
65	72808	17.7	28.010264425862
65	73439	17.8	28.027370877918
65	74070	17.9	28.044608901904
65	74701	18	28.061698558648
65	75332	18.1	28.078811406981
65	75963	18.2	28.095991340237
65	76594	18.3	28.113205619684
65	77225	18.4	28.130459434286
65	77856	18.5	28.147693347346
65	78487	18.6	28.164968924104
65	79118	18.7	28.182216625503
65	79749	18.8	28.199600631776
65	80380	18.9	28.216891214968
65	81011	19	28.234314824653
65	81642	19.1	28.251687447702
65	82273	19.2	28.269024838606
65	82904	19.3	28.286429085553
65	83535	19.4	28.30379484305
65	84166	19.5	28.321191463034
65	84797	19.6	28.338671323509
65	85428	19.7	28.356130067938
65	85942	19.8	28.373655822278
65	86456	19.9	28.391109771675
65	86970	20	28.408786761557
65	87484	20.1	28.426312856383
65	87998	20.2	28.443892183915
65	88512	20.3	28.461490836667
65	89026	20.4	28.479149682272
65	89540	20.5	28.496785101945
65	90054	20.6	28.514415647304
65	90568	20.7	28.531938996364
65	91082	20.8	28.549626806351
65	91596	20.9	28.56723295723
65	92110	21	28.584937405457
65	92519	21.1	28.60265991958
65	92928	21.2	28.620348288019
65	93337	21.3	28.638129572656
65	93746	21.4	28.655839751887
65	94155	21.5	28.673608397157
65	94564	21.6	28.691412877305
65	94973	21.7	28.709222345286
65	95382	21.8	28.727048215637
65	95791	21.9	28.744768255204
65	96200	22	28.762480420714
65	96609	22.1	28.78033587476
65	97018	22.2	28.798276584127
65	97427	22.3	28.816258722138
65	97836	22.4	28.834128871129
65	98152	22.5	28.851987434157
65	98468	22.6	28.869858606677
65	98784	22.7	28.887718201143
65	99100	22.8	28.905625648063
65	99416	22.9	28.923518366292
65	99732	23	28.941474995249
65	100048	23.1	28.959338479669
65	100364	23.2	28.977298916009
65	100680	23.3	28.995371924354
65	100996	23.4	29.013314229591
65	101312	23.5	29.031333945013
65	101628	23.6	29.049336296707
65	101944	23.7	29.067435460841
65	102260	23.8	29.08562040701
65	102495	23.9	29.103673531045
65	102730	24	29.121687332227
65	102965	24.1	29.139728689703
65	103200	24.2	29.157755116129
65	103435	24.3	29.175912020742
65	103670	24.4	29.194053973131
65	103905	24.5	29.212195571979
65	104140	24.6	29.230383436545
65	104375	24.7	29.248474420625
65	104541	24.8	29.266609400951
65	104707	24.9	29.284821359825
65	104873	25	29.302959251251
65	105039	25.1	29.321076069122
65	105148	25.2	29.339318682643
65	105257	25.3	29.357689862871
65	105366	25.4	29.375988992392
65	105475	25.5	29.394241676843
65	105584	25.6	29.412577479784
65	105693	25.7	29.430834999002
65	105802	25.8	29.449175412151
65	105911	25.9	29.467405994219
65	106020	26	29.485737441921
65	106129	26.1	29.504184816462
65	106238	26.2	29.522416548305
65	106347	26.3	29.540747482033
65	106456	26.4	29.559014628716
65	106565	26.5	29.577399250188
65	106629	26.6	29.595708022852
65	106693	26.7	29.614034822939
65	106757	26.8	29.632438904297
65	106821	26.9	29.650877930599
65	106885	27	29.669341539408
65	106949	27.1	29.687769828763
65	107013	27.2	29.706143506585
65	107077	27.3	29.724656591626
65	107141	27.4	29.743041213535
65	107205	27.5	29.761498467317
65	107269	27.6	29.779861590017
65	107333	27.7	29.798285830985
65	107397	27.8	29.816717762813
65	107461	27.9	29.835223737259
65	107492	28	29.853771423323
65	107523	28.1	29.87221773587
65	107554	28.2	29.890778794384
65	107585	28.3	29.909260334546
65	107616	28.4	29.927891285504
65	107647	28.5	29.946420256017
65	107678	28.6	29.965012364682
65	107709	28.7	29.983591198568
65	107740	28.8	30.002215849323
65	107771	28.9	30.020848761226
65	107802	29	30.039373275901
65	107833	29.1	30.057987708557
65	107864	29.2	30.076586395086
65	107874	29.3	30.095207449277
65	107884	29.4	30.113933113848
65	107894	29.5	30.132643337851
65	107904	29.6	30.151327765272
65	107914	29.7	30.170104070297
65	107924	29.8	30.188877977355
65	107934	29.9	30.207547953659
65	107944	30	30.226243383026
65	107954	30.1	30.244971100168
65	107964	30.2	30.263708938893
65	107974	30.3	30.282458483297
65	107984	30.4	30.301226966998
65	107994	30.5	30.319987947219
