version 2
run General-0-20161220-16:23:26-2278
attr configname General
attr datetime 20161220-16:23:26
attr experiment General
attr inifile omnetpp.ini
attr iterationvars ""
attr iterationvars2 $repetition=0
attr measurement ""
attr network com.liborio.locvanet.LocScenario
attr processid 2278
attr repetition 0
attr replication #0
attr resultdir results
attr runnumber 0
attr seedset 0
param **.coreDebug false
param **.debug false
param *.**.nic.mac1609_4.bitrate 18Mbps
param *.**.nic.mac1609_4.txPower 20mW
param *.**.nic.mac1609_4.useServiceChannel false
param *.**.nic.phy80211p.analogueModels "xmldoc(\"config_splm.xml\")"
param *.**.nic.phy80211p.decider "xmldoc(\"config_splm.xml\")"
param *.**.nic.phy80211p.sensitivity -89dBm
param *.**.nic.phy80211p.thermalNoise -110dBm
param *.**.nic.phy80211p.usePropagationDelay true
param *.**.nic.phy80211p.useThermalNoise true
param *.annotations.draw false
param *.connectionManager.alpha 2.0
param *.connectionManager.carrierFrequency "5.890e9 Hz"
param *.connectionManager.pMax 20mW
param *.connectionManager.sat -89dBm
param *.connectionManager.sendDirect true
param *.manager.autoShutdown true
param *.manager.host "\"localhost\""
param *.manager.launchConfig "xmldoc(\"rclt.launchd.xml\")"
param *.manager.margin 25
param *.manager.moduleDisplayString "\"\""
param *.manager.moduleName "\"node\""
param *.manager.moduleType "\"org.car2x.veins.nodes.Car\""
param *.manager.port 9999
param *.manager.updateInterval 0.1s
param *.node[*].appl.beaconInterval 0.1s
param *.node[*].appl.beaconPriority 3
param *.node[*].appl.dataOnSch false
param *.node[*].appl.dataPriority 2
param *.node[*].appl.debug false
param *.node[*].appl.headerLength "256 bit"
param *.node[*].appl.maxOffset 0.005s
param *.node[*].appl.sendBeacons true
param *.node[*].appl.sendData true
param *.node[*].applType "\"LocAppCom\""
param *.node[*].mobilityType "\"TraCIMobility\""
param *.node[*].mobilityType.debug true
param *.node[*].veinsmobility.x 0
param *.node[*].veinsmobility.y 0
param *.node[*].veinsmobility.z 1.895
param *.node[*].veinsmobilityType "\"org.car2x.veins.modules.mobility.traci.TraCIMobility\""
param *.node[*].veinsmobilityType.debug true
param *.playgroundSizeX 10000m
param *.playgroundSizeY 10000m
param *.playgroundSizeZ 50m
param *.world.use2D false
param *.world.useTorus false

vector 2  LocScenario.node[0].veinsmobility  posx  ETV
vector 3  LocScenario.node[0].veinsmobility  posy  ETV
vector 9  LocScenario.node[1].veinsmobility  posx  ETV
vector 10  LocScenario.node[1].veinsmobility  posy  ETV
vector 4  LocScenario.node[0].veinsmobility  speed  ETV
vector 11  LocScenario.node[1].veinsmobility  speed  ETV
vector 5  LocScenario.node[0].veinsmobility  acceleration  ETV
vector 6  LocScenario.node[0].veinsmobility  co2emission  ETV
vector 12  LocScenario.node[1].veinsmobility  acceleration  ETV
vector 13  LocScenario.node[1].veinsmobility  co2emission  ETV
vector 16  LocScenario.node[2].veinsmobility  posx  ETV
vector 17  LocScenario.node[2].veinsmobility  posy  ETV
vector 23  LocScenario.node[3].veinsmobility  posx  ETV
vector 24  LocScenario.node[3].veinsmobility  posy  ETV
vector 18  LocScenario.node[2].veinsmobility  speed  ETV
vector 25  LocScenario.node[3].veinsmobility  speed  ETV
vector 19  LocScenario.node[2].veinsmobility  acceleration  ETV
vector 20  LocScenario.node[2].veinsmobility  co2emission  ETV
vector 26  LocScenario.node[3].veinsmobility  acceleration  ETV
vector 27  LocScenario.node[3].veinsmobility  co2emission  ETV
vector 30  LocScenario.node[4].veinsmobility  posx  ETV
vector 31  LocScenario.node[4].veinsmobility  posy  ETV
vector 37  LocScenario.node[5].veinsmobility  posx  ETV
vector 38  LocScenario.node[5].veinsmobility  posy  ETV
vector 32  LocScenario.node[4].veinsmobility  speed  ETV
vector 39  LocScenario.node[5].veinsmobility  speed  ETV
vector 33  LocScenario.node[4].veinsmobility  acceleration  ETV
vector 34  LocScenario.node[4].veinsmobility  co2emission  ETV
vector 40  LocScenario.node[5].veinsmobility  acceleration  ETV
vector 41  LocScenario.node[5].veinsmobility  co2emission  ETV
vector 44  LocScenario.node[6].veinsmobility  posx  ETV
vector 45  LocScenario.node[6].veinsmobility  posy  ETV
vector 51  LocScenario.node[7].veinsmobility  posx  ETV
vector 52  LocScenario.node[7].veinsmobility  posy  ETV
vector 46  LocScenario.node[6].veinsmobility  speed  ETV
vector 53  LocScenario.node[7].veinsmobility  speed  ETV
vector 47  LocScenario.node[6].veinsmobility  acceleration  ETV
vector 48  LocScenario.node[6].veinsmobility  co2emission  ETV
vector 54  LocScenario.node[7].veinsmobility  acceleration  ETV
vector 55  LocScenario.node[7].veinsmobility  co2emission  ETV
vector 58  LocScenario.node[8].veinsmobility  posx  ETV
vector 59  LocScenario.node[8].veinsmobility  posy  ETV
vector 65  LocScenario.node[9].veinsmobility  posx  ETV
vector 66  LocScenario.node[9].veinsmobility  posy  ETV
vector 60  LocScenario.node[8].veinsmobility  speed  ETV
vector 67  LocScenario.node[9].veinsmobility  speed  ETV
vector 61  LocScenario.node[8].veinsmobility  acceleration  ETV
vector 62  LocScenario.node[8].veinsmobility  co2emission  ETV
vector 68  LocScenario.node[9].veinsmobility  acceleration  ETV
vector 69  LocScenario.node[9].veinsmobility  co2emission  ETV
vector 72  LocScenario.node[10].veinsmobility  posx  ETV
vector 73  LocScenario.node[10].veinsmobility  posy  ETV
vector 79  LocScenario.node[11].veinsmobility  posx  ETV
vector 80  LocScenario.node[11].veinsmobility  posy  ETV
vector 74  LocScenario.node[10].veinsmobility  speed  ETV
vector 81  LocScenario.node[11].veinsmobility  speed  ETV
vector 75  LocScenario.node[10].veinsmobility  acceleration  ETV
vector 76  LocScenario.node[10].veinsmobility  co2emission  ETV
vector 82  LocScenario.node[11].veinsmobility  acceleration  ETV
vector 83  LocScenario.node[11].veinsmobility  co2emission  ETV
vector 86  LocScenario.node[12].veinsmobility  posx  ETV
vector 87  LocScenario.node[12].veinsmobility  posy  ETV
vector 93  LocScenario.node[13].veinsmobility  posx  ETV
vector 94  LocScenario.node[13].veinsmobility  posy  ETV
vector 88  LocScenario.node[12].veinsmobility  speed  ETV
vector 95  LocScenario.node[13].veinsmobility  speed  ETV
vector 89  LocScenario.node[12].veinsmobility  acceleration  ETV
vector 90  LocScenario.node[12].veinsmobility  co2emission  ETV
vector 96  LocScenario.node[13].veinsmobility  acceleration  ETV
vector 97  LocScenario.node[13].veinsmobility  co2emission  ETV
vector 100  LocScenario.node[14].veinsmobility  posx  ETV
vector 101  LocScenario.node[14].veinsmobility  posy  ETV
vector 107  LocScenario.node[15].veinsmobility  posx  ETV
vector 108  LocScenario.node[15].veinsmobility  posy  ETV
vector 102  LocScenario.node[14].veinsmobility  speed  ETV
vector 109  LocScenario.node[15].veinsmobility  speed  ETV
vector 103  LocScenario.node[14].veinsmobility  acceleration  ETV
vector 104  LocScenario.node[14].veinsmobility  co2emission  ETV
vector 110  LocScenario.node[15].veinsmobility  acceleration  ETV
vector 111  LocScenario.node[15].veinsmobility  co2emission  ETV
vector 114  LocScenario.node[16].veinsmobility  posx  ETV
vector 115  LocScenario.node[16].veinsmobility  posy  ETV
vector 121  LocScenario.node[17].veinsmobility  posx  ETV
vector 122  LocScenario.node[17].veinsmobility  posy  ETV
vector 116  LocScenario.node[16].veinsmobility  speed  ETV
vector 123  LocScenario.node[17].veinsmobility  speed  ETV
vector 117  LocScenario.node[16].veinsmobility  acceleration  ETV
vector 118  LocScenario.node[16].veinsmobility  co2emission  ETV
vector 124  LocScenario.node[17].veinsmobility  acceleration  ETV
vector 125  LocScenario.node[17].veinsmobility  co2emission  ETV
vector 128  LocScenario.node[18].veinsmobility  posx  ETV
vector 129  LocScenario.node[18].veinsmobility  posy  ETV
vector 135  LocScenario.node[19].veinsmobility  posx  ETV
vector 136  LocScenario.node[19].veinsmobility  posy  ETV
vector 130  LocScenario.node[18].veinsmobility  speed  ETV
vector 137  LocScenario.node[19].veinsmobility  speed  ETV
vector 131  LocScenario.node[18].veinsmobility  acceleration  ETV
vector 132  LocScenario.node[18].veinsmobility  co2emission  ETV
vector 138  LocScenario.node[19].veinsmobility  acceleration  ETV
vector 139  LocScenario.node[19].veinsmobility  co2emission  ETV
vector 142  LocScenario.node[20].veinsmobility  posx  ETV
vector 143  LocScenario.node[20].veinsmobility  posy  ETV
vector 149  LocScenario.node[21].veinsmobility  posx  ETV
vector 150  LocScenario.node[21].veinsmobility  posy  ETV
vector 144  LocScenario.node[20].veinsmobility  speed  ETV
vector 151  LocScenario.node[21].veinsmobility  speed  ETV
vector 145  LocScenario.node[20].veinsmobility  acceleration  ETV
vector 146  LocScenario.node[20].veinsmobility  co2emission  ETV
vector 152  LocScenario.node[21].veinsmobility  acceleration  ETV
vector 153  LocScenario.node[21].veinsmobility  co2emission  ETV
vector 156  LocScenario.node[22].veinsmobility  posx  ETV
vector 157  LocScenario.node[22].veinsmobility  posy  ETV
vector 163  LocScenario.node[23].veinsmobility  posx  ETV
vector 164  LocScenario.node[23].veinsmobility  posy  ETV
vector 158  LocScenario.node[22].veinsmobility  speed  ETV
vector 165  LocScenario.node[23].veinsmobility  speed  ETV
vector 159  LocScenario.node[22].veinsmobility  acceleration  ETV
vector 160  LocScenario.node[22].veinsmobility  co2emission  ETV
vector 166  LocScenario.node[23].veinsmobility  acceleration  ETV
vector 167  LocScenario.node[23].veinsmobility  co2emission  ETV
vector 170  LocScenario.node[24].veinsmobility  posx  ETV
vector 171  LocScenario.node[24].veinsmobility  posy  ETV
vector 177  LocScenario.node[25].veinsmobility  posx  ETV
vector 178  LocScenario.node[25].veinsmobility  posy  ETV
vector 172  LocScenario.node[24].veinsmobility  speed  ETV
vector 179  LocScenario.node[25].veinsmobility  speed  ETV
vector 173  LocScenario.node[24].veinsmobility  acceleration  ETV
vector 174  LocScenario.node[24].veinsmobility  co2emission  ETV
vector 180  LocScenario.node[25].veinsmobility  acceleration  ETV
vector 181  LocScenario.node[25].veinsmobility  co2emission  ETV
vector 184  LocScenario.node[26].veinsmobility  posx  ETV
vector 185  LocScenario.node[26].veinsmobility  posy  ETV
vector 191  LocScenario.node[27].veinsmobility  posx  ETV
vector 192  LocScenario.node[27].veinsmobility  posy  ETV
vector 186  LocScenario.node[26].veinsmobility  speed  ETV
vector 193  LocScenario.node[27].veinsmobility  speed  ETV
vector 187  LocScenario.node[26].veinsmobility  acceleration  ETV
vector 188  LocScenario.node[26].veinsmobility  co2emission  ETV
vector 194  LocScenario.node[27].veinsmobility  acceleration  ETV
vector 195  LocScenario.node[27].veinsmobility  co2emission  ETV
vector 198  LocScenario.node[28].veinsmobility  posx  ETV
vector 199  LocScenario.node[28].veinsmobility  posy  ETV
vector 205  LocScenario.node[29].veinsmobility  posx  ETV
vector 206  LocScenario.node[29].veinsmobility  posy  ETV
vector 200  LocScenario.node[28].veinsmobility  speed  ETV
vector 207  LocScenario.node[29].veinsmobility  speed  ETV
vector 201  LocScenario.node[28].veinsmobility  acceleration  ETV
vector 202  LocScenario.node[28].veinsmobility  co2emission  ETV
vector 208  LocScenario.node[29].veinsmobility  acceleration  ETV
vector 209  LocScenario.node[29].veinsmobility  co2emission  ETV
vector 212  LocScenario.node[30].veinsmobility  posx  ETV
vector 213  LocScenario.node[30].veinsmobility  posy  ETV
vector 219  LocScenario.node[31].veinsmobility  posx  ETV
vector 220  LocScenario.node[31].veinsmobility  posy  ETV
vector 214  LocScenario.node[30].veinsmobility  speed  ETV
vector 221  LocScenario.node[31].veinsmobility  speed  ETV
vector 215  LocScenario.node[30].veinsmobility  acceleration  ETV
vector 216  LocScenario.node[30].veinsmobility  co2emission  ETV
vector 222  LocScenario.node[31].veinsmobility  acceleration  ETV
vector 223  LocScenario.node[31].veinsmobility  co2emission  ETV
vector 226  LocScenario.node[32].veinsmobility  posx  ETV
vector 227  LocScenario.node[32].veinsmobility  posy  ETV
vector 228  LocScenario.node[32].veinsmobility  speed  ETV
vector 233  LocScenario.node[33].veinsmobility  posx  ETV
vector 234  LocScenario.node[33].veinsmobility  posy  ETV
vector 229  LocScenario.node[32].veinsmobility  acceleration  ETV
vector 230  LocScenario.node[32].veinsmobility  co2emission  ETV
vector 235  LocScenario.node[33].veinsmobility  speed  ETV
vector 236  LocScenario.node[33].veinsmobility  acceleration  ETV
vector 237  LocScenario.node[33].veinsmobility  co2emission  ETV
vector 240  LocScenario.node[34].veinsmobility  posx  ETV
vector 241  LocScenario.node[34].veinsmobility  posy  ETV
vector 242  LocScenario.node[34].veinsmobility  speed  ETV
vector 243  LocScenario.node[34].veinsmobility  acceleration  ETV
vector 244  LocScenario.node[34].veinsmobility  co2emission  ETV
vector 247  LocScenario.node[35].veinsmobility  posx  ETV
vector 248  LocScenario.node[35].veinsmobility  posy  ETV
vector 249  LocScenario.node[35].veinsmobility  speed  ETV
vector 250  LocScenario.node[35].veinsmobility  acceleration  ETV
vector 251  LocScenario.node[35].veinsmobility  co2emission  ETV
vector 254  LocScenario.node[36].veinsmobility  posx  ETV
vector 255  LocScenario.node[36].veinsmobility  posy  ETV
vector 256  LocScenario.node[36].veinsmobility  speed  ETV
vector 257  LocScenario.node[36].veinsmobility  acceleration  ETV
vector 258  LocScenario.node[36].veinsmobility  co2emission  ETV
vector 261  LocScenario.node[37].veinsmobility  posx  ETV
vector 262  LocScenario.node[37].veinsmobility  posy  ETV
vector 263  LocScenario.node[37].veinsmobility  speed  ETV
vector 268  LocScenario.node[38].veinsmobility  posx  ETV
vector 269  LocScenario.node[38].veinsmobility  posy  ETV
vector 264  LocScenario.node[37].veinsmobility  acceleration  ETV
vector 265  LocScenario.node[37].veinsmobility  co2emission  ETV
vector 270  LocScenario.node[38].veinsmobility  speed  ETV
vector 271  LocScenario.node[38].veinsmobility  acceleration  ETV
vector 272  LocScenario.node[38].veinsmobility  co2emission  ETV
vector 275  LocScenario.node[39].veinsmobility  posx  ETV
vector 276  LocScenario.node[39].veinsmobility  posy  ETV
vector 277  LocScenario.node[39].veinsmobility  speed  ETV
vector 278  LocScenario.node[39].veinsmobility  acceleration  ETV
vector 279  LocScenario.node[39].veinsmobility  co2emission  ETV
vector 282  LocScenario.node[40].veinsmobility  posx  ETV
vector 283  LocScenario.node[40].veinsmobility  posy  ETV
vector 289  LocScenario.node[41].veinsmobility  posx  ETV
vector 290  LocScenario.node[41].veinsmobility  posy  ETV
vector 284  LocScenario.node[40].veinsmobility  speed  ETV
vector 285  LocScenario.node[40].veinsmobility  acceleration  ETV
vector 286  LocScenario.node[40].veinsmobility  co2emission  ETV
vector 291  LocScenario.node[41].veinsmobility  speed  ETV
vector 292  LocScenario.node[41].veinsmobility  acceleration  ETV
vector 293  LocScenario.node[41].veinsmobility  co2emission  ETV
vector 296  LocScenario.node[42].veinsmobility  posx  ETV
vector 297  LocScenario.node[42].veinsmobility  posy  ETV
vector 298  LocScenario.node[42].veinsmobility  speed  ETV
vector 299  LocScenario.node[42].veinsmobility  acceleration  ETV
vector 300  LocScenario.node[42].veinsmobility  co2emission  ETV
vector 303  LocScenario.node[43].veinsmobility  posx  ETV
vector 304  LocScenario.node[43].veinsmobility  posy  ETV
vector 305  LocScenario.node[43].veinsmobility  speed  ETV
vector 306  LocScenario.node[43].veinsmobility  acceleration  ETV
vector 307  LocScenario.node[43].veinsmobility  co2emission  ETV
vector 310  LocScenario.node[44].veinsmobility  posx  ETV
vector 311  LocScenario.node[44].veinsmobility  posy  ETV
vector 312  LocScenario.node[44].veinsmobility  speed  ETV
vector 313  LocScenario.node[44].veinsmobility  acceleration  ETV
vector 314  LocScenario.node[44].veinsmobility  co2emission  ETV
vector 317  LocScenario.node[45].veinsmobility  posx  ETV
vector 318  LocScenario.node[45].veinsmobility  posy  ETV
vector 319  LocScenario.node[45].veinsmobility  speed  ETV
vector 324  LocScenario.node[46].veinsmobility  posx  ETV
vector 325  LocScenario.node[46].veinsmobility  posy  ETV
vector 320  LocScenario.node[45].veinsmobility  acceleration  ETV
vector 321  LocScenario.node[45].veinsmobility  co2emission  ETV
vector 326  LocScenario.node[46].veinsmobility  speed  ETV
vector 327  LocScenario.node[46].veinsmobility  acceleration  ETV
vector 328  LocScenario.node[46].veinsmobility  co2emission  ETV
vector 331  LocScenario.node[47].veinsmobility  posx  ETV
vector 332  LocScenario.node[47].veinsmobility  posy  ETV
vector 333  LocScenario.node[47].veinsmobility  speed  ETV
vector 334  LocScenario.node[47].veinsmobility  acceleration  ETV
vector 335  LocScenario.node[47].veinsmobility  co2emission  ETV
vector 338  LocScenario.node[48].veinsmobility  posx  ETV
vector 339  LocScenario.node[48].veinsmobility  posy  ETV
vector 345  LocScenario.node[49].veinsmobility  posx  ETV
vector 346  LocScenario.node[49].veinsmobility  posy  ETV
vector 340  LocScenario.node[48].veinsmobility  speed  ETV
vector 341  LocScenario.node[48].veinsmobility  acceleration  ETV
vector 342  LocScenario.node[48].veinsmobility  co2emission  ETV
vector 347  LocScenario.node[49].veinsmobility  speed  ETV
vector 348  LocScenario.node[49].veinsmobility  acceleration  ETV
vector 349  LocScenario.node[49].veinsmobility  co2emission  ETV
vector 352  LocScenario.node[50].veinsmobility  posx  ETV
vector 353  LocScenario.node[50].veinsmobility  posy  ETV
vector 354  LocScenario.node[50].veinsmobility  speed  ETV
vector 355  LocScenario.node[50].veinsmobility  acceleration  ETV
vector 356  LocScenario.node[50].veinsmobility  co2emission  ETV
vector 359  LocScenario.node[51].veinsmobility  posx  ETV
vector 360  LocScenario.node[51].veinsmobility  posy  ETV
vector 361  LocScenario.node[51].veinsmobility  speed  ETV
vector 362  LocScenario.node[51].veinsmobility  acceleration  ETV
vector 363  LocScenario.node[51].veinsmobility  co2emission  ETV
vector 366  LocScenario.node[52].veinsmobility  posx  ETV
vector 367  LocScenario.node[52].veinsmobility  posy  ETV
vector 368  LocScenario.node[52].veinsmobility  speed  ETV
vector 369  LocScenario.node[52].veinsmobility  acceleration  ETV
vector 370  LocScenario.node[52].veinsmobility  co2emission  ETV
vector 373  LocScenario.node[53].veinsmobility  posx  ETV
vector 374  LocScenario.node[53].veinsmobility  posy  ETV
vector 375  LocScenario.node[53].veinsmobility  speed  ETV
vector 380  LocScenario.node[54].veinsmobility  posx  ETV
vector 381  LocScenario.node[54].veinsmobility  posy  ETV
vector 376  LocScenario.node[53].veinsmobility  acceleration  ETV
vector 377  LocScenario.node[53].veinsmobility  co2emission  ETV
vector 382  LocScenario.node[54].veinsmobility  speed  ETV
vector 383  LocScenario.node[54].veinsmobility  acceleration  ETV
vector 384  LocScenario.node[54].veinsmobility  co2emission  ETV
vector 387  LocScenario.node[55].veinsmobility  posx  ETV
vector 388  LocScenario.node[55].veinsmobility  posy  ETV
vector 389  LocScenario.node[55].veinsmobility  speed  ETV
vector 390  LocScenario.node[55].veinsmobility  acceleration  ETV
vector 391  LocScenario.node[55].veinsmobility  co2emission  ETV
vector 394  LocScenario.node[56].veinsmobility  posx  ETV
vector 395  LocScenario.node[56].veinsmobility  posy  ETV
vector 396  LocScenario.node[56].veinsmobility  speed  ETV
vector 401  LocScenario.node[57].veinsmobility  posx  ETV
vector 402  LocScenario.node[57].veinsmobility  posy  ETV
vector 397  LocScenario.node[56].veinsmobility  acceleration  ETV
vector 398  LocScenario.node[56].veinsmobility  co2emission  ETV
vector 403  LocScenario.node[57].veinsmobility  speed  ETV
vector 404  LocScenario.node[57].veinsmobility  acceleration  ETV
vector 405  LocScenario.node[57].veinsmobility  co2emission  ETV
vector 408  LocScenario.node[58].veinsmobility  posx  ETV
vector 409  LocScenario.node[58].veinsmobility  posy  ETV
vector 410  LocScenario.node[58].veinsmobility  speed  ETV
vector 411  LocScenario.node[58].veinsmobility  acceleration  ETV
vector 412  LocScenario.node[58].veinsmobility  co2emission  ETV
vector 415  LocScenario.node[59].veinsmobility  posx  ETV
vector 416  LocScenario.node[59].veinsmobility  posy  ETV
vector 417  LocScenario.node[59].veinsmobility  speed  ETV
vector 418  LocScenario.node[59].veinsmobility  acceleration  ETV
vector 419  LocScenario.node[59].veinsmobility  co2emission  ETV
vector 422  LocScenario.node[60].veinsmobility  posx  ETV
vector 423  LocScenario.node[60].veinsmobility  posy  ETV
vector 424  LocScenario.node[60].veinsmobility  speed  ETV
vector 425  LocScenario.node[60].veinsmobility  acceleration  ETV
vector 426  LocScenario.node[60].veinsmobility  co2emission  ETV
6	40	0.3	2.2223149737355
6	59	0.4	4.2828592904206
6	78	0.5	4.4945106460641
6	97	0.6	6.3505671561767
6	116	0.7	6.4954736078377
6	135	0.8	5.1752745690378
6	154	0.9	6.5240788967622
6	173	1	2.5442423786262
6	192	1.1	2.6340352367449
6	253	1.2	3.9678230312958
6	314	1.3	0.96142625771498
6	375	1.4	11.722217709124
6	436	1.5	0.973
6	497	1.6	4.0769173102848
6	558	1.7	5.0178003190373
6	619	1.8	4.5656133594577
6	680	1.9	5.6289451880021
6	741	2	1.7578687930223
6	802	2.1	9.0204260372606
6	929	2.2	1.6104660394039
6	1056	2.3	8.0066969869284
6	1183	2.4	3.875769776925
6	1310	2.5	2.4434135627686
6	1437	2.6	1.3068236370313
6	1564	2.7	9.7330127006241
6	1691	2.8	4.7072099793607
6	1818	2.9	0.973
6	1945	3	4.0818961398788
6	2072	3.1	8.9354176908948
6	2289	3.2	2.8322992764845
6	2506	3.3	2.9750551656813
6	2723	3.4	3.0505201959249
6	2940	3.5	6.4627495354176
6	3157	3.6	8.2718710154076
6	3374	3.7	6.4469334557573
6	3591	3.8	0.42680277868179
6	3808	3.9	6.1985039445052
6	4025	4	4.6742063412539
6	4242	4.1	-0.27517818450754
6	4573	4.2	9.1183242253731
6	4904	4.3	1.3678979670483
6	5235	4.4	8.9736234204755
6	5566	4.5	2.7077083735483
6	5897	4.6	5.1416070458782
6	6228	4.7	1.1479609713807
6	6559	4.8	4.3087122447606
6	6890	4.9	4.6460761861137
6	7221	5	1.7508747233033
6	7552	5.1	6.0779326892996
6	8021	5.2	2.6599579673497
6	8490	5.3	8.7013187864907
6	8959	5.4	0.45725779445859
6	9428	5.5	10.466643093852
6	9897	5.6	3.9682874847051
6	10366	5.7	2.0161563972195
6	10835	5.8	3.6303858601886
6	11304	5.9	0.973
6	11773	6	0.973
6	12242	6.1	0.973
6	12873	6.2	0.973
6	13504	6.3	0.973
6	14135	6.4	0.973
6	14766	6.5	0.973
6	15397	6.6	0.973
6	16028	6.7	0.973
6	16659	6.8	0.973
6	17290	6.9	0.973
6	17921	7	0.973
6	18552	7.1	0.973
6	19369	7.2	0.973
6	20186	7.3	0.973
6	21003	7.4	0.973
6	21820	7.5	0.973
6	22637	7.6	0.973
6	23454	7.7	0.973
6	24271	7.8	0.973
6	25088	7.9	0.973
6	25905	8	0.973
6	26722	8.1	0.973
6	27749	8.2	0.973
6	28776	8.3	0.973
6	29803	8.4	0.973
6	30830	8.5	0.973
6	31857	8.6	0.973
6	32884	8.7	0.973
6	33911	8.8	0.973
6	34938	8.9	0.973
6	35965	9	0.973
6	36992	9.1	0.973
6	38253	9.2	0.973
6	39514	9.3	0.973
6	40775	9.4	0.973
6	42036	9.5	0.973
6	43297	9.6	0.973
6	44558	9.7	0.973
6	45819	9.8	0.973
6	47080	9.9	0.973
6	48341	10	0.973
6	49602	10.1	0.973
6	51121	10.2	0.973
6	52640	10.3	0.973
6	54159	10.4	0.973
6	55678	10.5	0.973
6	57197	10.6	0.973
6	58716	10.7	0.973
6	60235	10.8	0.973
6	61754	10.9	0.973
6	63273	11	0.973
6	64792	11.1	0.973
6	66593	11.2	0.973
6	68394	11.3	0.973
6	70195	11.4	0.973
6	71996	11.5	0.973
6	73797	11.6	0.973
6	75598	11.7	0.973
6	77399	11.8	0.973
6	79200	11.9	0.973
6	81001	12	0.973
6	82802	12.1	0.973
6	84909	12.2	0.973
6	87016	12.3	0.973
6	89123	12.4	0.973
6	91230	12.5	0.973
6	93337	12.6	0.973
6	95444	12.7	0.973
6	97551	12.8	0.973
6	99658	12.9	0.973
6	101765	13	0.973
6	103872	13.1	0.973
6	106309	13.2	0.973
6	108746	13.3	0.973
6	111183	13.4	0.973
6	113620	13.5	0.973
6	116057	13.6	0.973
6	118494	13.7	0.973
6	120931	13.8	0.973
6	123368	13.9	0.973
6	125805	14	0.973
6	128242	14.1	0.973
6	131033	14.2	0.973
6	133824	14.3	0.973
6	136615	14.4	0.973
6	139406	14.5	0.973
6	142197	14.6	0.973
6	144988	14.7	0.973
6	147779	14.8	0.973
6	150570	14.9	0.973
6	153361	15	0.973
6	156152	15.1	0.973
6	159321	15.2	0.973
6	162490	15.3	0.973
6	165659	15.4	0.973
6	168828	15.5	0.973
6	171997	15.6	0.973
6	175166	15.7	0.973
6	178335	15.8	0.973
6	181504	15.9	0.973
6	184673	16	0.973
6	187842	16.1	0.973
6	191212	16.2	0.973
6	194582	16.3	0.973
6	198153	16.4	0.973
6	201724	16.5	0.973
6	205295	16.6	0.973
6	208866	16.7	0.973
6	212437	16.8	0.973
6	216008	16.9	0.973
6	219579	17	0.973
6	223150	17.1	0.973
6	226934	17.2	1.1131435369631
6	230718	17.3	0.973
6	234502	17.4	0.973
6	238286	17.5	1.1126570382172
6	242070	17.6	1.1117567527114
6	245854	17.7	1.1119003950873
6	249851	17.8	1.1119630826492
6	253848	17.9	1.1116012919468
6	257845	18	1.111762857678
6	261842	18.1	1.1116279134302
6	266064	18.2	1.1114545700612
6	270286	18.3	1.1112912894434
6	274508	18.4	1.1111840221484
6	278730	18.5	1.1110960059707
6	282952	18.6	1.1110837335327
6	287174	18.7	1.1108977461623
6	291396	18.8	1.1108147277628
6	295618	18.9	1.1108322600039
6	299840	19	1.110698967807
6	304062	19.1	1.1106300159528
6	308521	19.2	1.1105870041486
6	312980	19.3	1.1105587579357
6	317664	19.4	1.1104631240375
6	322348	19.5	1.1104330380962
6	327032	19.6	1.1104026028057
6	331716	19.7	1.1103777514804
6	336400	19.8	1.1103297128841
6	341084	19.9	1.1102945430293
6	345768	20	1.1102688280587
6	350452	20.1	1.1102510323113
6	355385	20.2	1.1102262727026
6	360318	20.3	1.1102038671049
6	365251	20.4	1.1101827517046
6	370184	20.5	1.1101692601904
6	375117	20.6	1.1101469187896
6	380050	20.7	1.1101345100113
6	384983	20.8	1.1101246807133
6	389916	20.9	1.1101114838389
6	394849	21	1.1100959764087
6	400019	21.1	1.1100893015529
6	405450	21.2	1.110081246004
6	410881	21.3	1.1100729645018
6	416312	21.4	1.1100664348448
6	421743	21.5	1.1100603723447
6	427174	21.6	1.1100547136961
6	432605	21.7	1.1100474464609
6	438036	21.8	1.110044032861
6	443467	21.9	1.110038569748
6	448898	22	1.1100350517955
6	454329	22.1	1.1100322639419
6	460033	22.2	1.110029489538
6	465737	22.3	1.1100268049009
6	471441	22.4	1.1100238950087
6	477145	22.5	1.1100217128719
6	482849	22.6	1.1100188879096
6	488802	22.7	1.1100175082438
6	494755	22.8	1.1100160246064
6	500708	22.9	1.1100140690011
6	506661	23	1.1100125153791
6	512614	23.1	1.1100113098606
6	518852	23.2	1.1100106800931
6	525090	23.3	1.1100092095029
6	531328	23.4	1.110008683387
6	537566	23.5	1.1100078925209
6	543804	23.6	1.1100070391481
6	550042	23.7	1.1100063312073
6	556280	23.8	1.1100055825771
6	562518	23.9	1.1100049893127
6	568756	24	1.1100046269309
6	574994	24.1	1.1100041984144
6	581517	24.2	1.1100036615739
6	588040	24.3	1.1100034343458
6	594824	24.4	1.1100030513388
6	601608	24.5	1.1100028130227
6	608392	24.6	1.110002515595
6	615176	24.7	1.110002252061
6	621960	24.8	1.1100019918346
6	628744	24.9	1.1100018426938
6	635528	25	1.1100016823633
6	642312	25.1	1.1100014694323
6	649393	25.2	1.110001342898
6	656474	25.3	1.1100011960834
6	663555	25.4	1.1100010709649
6	670636	25.5	1.1100009756956
6	677717	25.6	1.1100008867354
6	684798	25.7	1.1100008234244
6	691879	25.8	1.1100007315764
6	698960	25.9	1.1100006514744
6	706041	26	1.1100006040293
6	713395	26.1	1.1100005207989
6	721046	26.2	1.1100004819781
6	728697	26.3	1.1100004422112
6	736348	26.4	1.1100003849559
6	743999	26.5	1.110000349558
6	751650	26.6	1.1100003240585
6	759289	26.7	1.1100002921212
6	766928	26.8	1.1100002590488
6	774567	26.9	1.1100002304637
6	782206	27	1.1100002178759
6	789845	27.1	1.1100001895621
6	797793	27.2	1.1100001727249
6	805741	27.3	1.1100001583096
6	813689	27.4	1.110000143949
6	821637	27.5	1.1100001246219
6	829585	27.6	1.110000114626
6	837521	27.7	1.1100001066153
6	845742	27.8	1.1100000914133
6	853963	27.9	1.1100000869409
6	862184	28	1.1100000782847
6	870405	28.1	1.1100000676595
6	878935	28.2	1.110000062766
6	887465	28.3	1.1100000559363
6	895995	28.4	1.1100000493901
6	904525	28.5	1.1100000455093
6	913055	28.6	1.1100000406727
6	921585	28.7	1.1100000366069
6	930115	28.8	1.1100000333373
6	938633	28.9	1.1100000302194
6	947139	29	1.1100000274987
6	955645	29.1	1.1100000252133
6	964472	29.2	1.1100000223786
6	973299	29.3	1.1100000200681
6	982423	29.4	1.1100000179338
6	991547	29.5	1.1100000165096
6	1000671	29.6	1.1100000150684
6	1009795	29.7	1.1100000131852
6	1018919	29.8	1.1100000120699
6	1028043	29.9	1.1100000108034
6	1037167	30	1.110000010131
6	1046291	30.1	1.1100000091073
6	1055736	30.2	1.110000008107
6	1065181	30.3	1.1100000073516
6	1074626	30.4	1.1100000067102
6	1084071	30.5	1.1100000059405
6	1093504	30.6	1.1100000054197
6	1102925	30.7	1.1100000049522
6	1112346	30.8	1.1100000044665
6	1121767	30.9	1.1100000038765
6	1131497	31	1.1100000036304
6	1141227	31.1	1.1100000031735
6	1151278	31.2	1.1100000028671
6	1161329	31.3	1.1100000025914
6	1171380	31.4	1.1100000023025
6	1181431	31.5	1.1100000021582
6	1191482	31.6	1.1100000018905
6	1201533	31.7	1.1100000017496
6	1211572	31.8	1.110000001579
6	1221599	31.9	1.1100000013965
6	1231626	32	1.1100000013037
6	1241653	32.1	1.1100000011552
6	1251989	32.2	1.1100000010148
6	1262325	32.3	1.110000000938
6	1272661	32.4	1.1100000008434
6	1282997	32.5	1.1100000007718
6	1293654	32.6	1.1100000006886
6	1304311	32.7	1.1100000006107
6	1314968	32.8	1.1100000005471
6	1325625	32.9	1.1100000005152
6	1336282	33	1.1100000004521
6	1346939	33.1	1.1100000004174
6	1357953	33.2	1.110000000381
6	1368955	33.3	1.1100000003337
6	1379957	33.4	1.1100000003051
6	1390947	33.5	1.1100000002757
5	40	0.3	-0.32684746601152
5	59	0.4	-0.017783838487233
5	78	0.5	0.013902047369641
5	97	0.6	0.29079445311801
5	116	0.7	0.3109365846263
5	135	0.8	0.11290123385844
5	154	0.9	0.31306811838874
5	173	1	-0.28072631442917
5	192	1.1	-0.26651146227959
5	253	1.2	-0.066598752839511
5	314	1.3	-0.51571222520433
5	375	1.4	1.0900075371377
5	436	1.5	-0.9691377096344
5	497	1.6	-0.048609993141113
5	558	1.7	0.092109655844972
5	619	1.8	0.024218204640789
5	680	1.9	0.18279060625936
5	741	2	-0.39617227211128
5	802	2.1	0.68900907074564
5	929	2.2	-0.4189331078436
5	1056	2.3	0.53661032593808
5	1183	2.4	-0.081052366108629
5	1310	2.5	-0.29454682893121
5	1437	2.6	-0.46376928878015
5	1564	2.7	0.79515396791976
5	1691	2.8	0.043036425439631
5	1818	2.9	-0.82407265421935
5	1945	3	-0.047255385247986
5	2072	3.1	0.67678267862647
5	2289	3.2	-0.23612171292768
5	2506	3.3	-0.21406273059547
5	2723	3.4	-0.20210610460492
5	2940	3.5	0.30835464904087
5	3157	3.6	0.5760603966657
5	3374	3.7	0.30159050775691
5	3591	3.8	-0.59683071747422
5	3808	3.9	0.26608282737435
5	4025	4	0.037911723158324
5	4242	4.1	-0.70139411855489
5	4573	4.2	0.7026026746491
5	4904	4.3	-0.45557804203128
5	5235	4.4	0.67953492125962
5	5566	4.5	-0.25612134882248
5	5897	4.6	0.10749090169554
5	6228	4.7	-0.48861825186759
5	6559	4.8	-0.015108873043204
5	6890	4.9	0.035285463137562
5	7221	5	-0.39737598593348
5	7552	5.1	0.25045541655274
5	8021	5.2	-0.26098690631336
5	8490	5.3	0.64122632581277
5	8959	5.4	-0.59148128207308
5	9428	5.5	0.90317844301463
5	9897	5.6	-0.067983506736375
5	10366	5.7	-0.35893209441564
5	10835	5.8	-0.11684878913218
5	11304	5.9	-1.1914126659817
5	11773	6	-3.2409477395564
5	12242	6.1	-3.4275417196095
5	12873	6.2	-4.4085206003651
5	13504	6.3	-3.7228672996335
5	14135	6.4	-4.0601034088356
5	14766	6.5	-3.8976876065682
5	15397	6.6	-4.3040653413143
5	16028	6.7	-3.8934862773578
5	16659	6.8	-2.8676185912508
5	17290	6.9	-4.5
5	17921	7	-3.1385489485609
5	18552	7.1	-4.5
5	19369	7.2	-4.0694105789415
5	20186	7.3	-3.3248358998862
5	21003	7.4	-3.7055708173795
5	21820	7.5	-3.7578533201695
5	22637	7.6	-4.4029750481385
5	23454	7.7	-3.0964991983027
5	24271	7.8	-4.0265741301332
5	25088	7.9	-3.8394729036462
5	25905	8	-3.6320423994376
5	26722	8.1	-3.7307280248591
5	27749	8.2	-3.1208758276923
5	28776	8.3	-4.5
5	29803	8.4	-3.3496547403522
5	30830	8.5	-3.1484753133605
5	31857	8.6	-3.8138267121695
5	32884	8.7	-4.1911765219465
5	33911	8.8	-2.8374886180627
5	34938	8.9	-4.5
5	35965	9	-3.2349731667873
5	36992	9.1	-3.3181149573245
5	38253	9.2	-3.3870758420397
5	39514	9.3	-3.8389860345083
5	40775	9.4	-3.8170216877911
5	42036	9.5	-3.3634988581864
5	43297	9.6	-3.4199384487665
5	44558	9.7	-3.7459054531771
5	45819	9.8	-3.512025131678
5	47080	9.9	-3.4496988172802
5	48341	10	-2.8197980750195
5	49602	10.1	-3.7789466878113
5	51121	10.2	-3.0864122201909
5	52640	10.3	-3.3237567499047
5	54159	10.4	-3.9794163441196
5	55678	10.5	-2.6437090531124
5	57197	10.6	-3.3030655543355
5	58716	10.7	-3.2722778181378
5	60235	10.8	-2.5530378687903
5	61754	10.9	-3.2245653241129
5	63273	11	-4.2824406677958
5	64792	11.1	-2.1589396316309
5	66593	11.2	-3.3616867801536
5	68394	11.3	-3.380803606255
5	70195	11.4	-3.2676676796266
5	71996	11.5	-2.1756696824769
5	73797	11.6	-3.4439583561339
5	75598	11.7	-2.3446275230749
5	77399	11.8	-2.7039964850942
5	79200	11.9	-3.6932420099465
5	81001	12	-2.1976192582462
5	82802	12.1	-2.6593712779622
5	84909	12.2	-3.1947710024415
5	87016	12.3	-2.1941116542742
5	89123	12.4	-2.1183783232567
5	91230	12.5	-2.121936859804
5	93337	12.6	-3.5775711093587
5	95444	12.7	-1.8251998722169
5	97551	12.8	-2.5646801104487
5	99658	12.9	-2.3699706200483
5	101765	13	-2.4538336224143
5	103872	13.1	-1.3984667387933
5	106309	13.2	-2.2163255794206
5	108746	13.3	-1.5487301118527
5	111183	13.4	-2.5866210146414
5	113620	13.5	-1.6314063937777
5	116057	13.6	-1.3186584886688
5	118494	13.7	-2.1809149199282
5	120931	13.8	-2.0938070611274
5	123368	13.9	-0.50003842359672
5	125805	14	-1.7407380762671
5	128242	14.1	-1.5735187313797
5	131033	14.2	-1.2362280160874
5	133824	14.3	-1.9277543644263
5	136615	14.4	-0.4924546618032
5	139406	14.5	-1.7928887068278
5	142197	14.6	-0.75570178656561
5	144988	14.7	-0.96319752887283
5	147779	14.8	-0.86150596820252
5	150570	14.9	-0.85080322851878
5	153361	15	-0.93484247455283
5	156152	15.1	-1.0065361959553
5	159321	15.2	-0.61186214596156
5	162490	15.3	-0.45470157018477
5	165659	15.4	-0.61401528748207
5	168828	15.5	-0.594399103845
5	171997	15.6	-0.73524870395871
5	175166	15.7	-0.44138499019943
5	178335	15.8	-0.22892998051567
5	181504	15.9	-0.60713442486014
5	184673	16	-0.25183491930682
5	187842	16.1	-0.32908922884619
5	191212	16.2	-0.3863401777807
5	194582	16.3	-0.2303012615016
5	198153	16.4	-0.24231580608322
5	201724	16.5	-0.19051847694675
5	205295	16.6	-0.2497717691098
5	208866	16.7	-0.22175413878753
5	212437	16.8	-0.15656839038839
5	216008	16.9	-0.13011960545653
5	219579	17	-0.10717371430793
5	223150	17.1	-0.17015987251547
5	226934	17.2	-0.073735611645307
5	230718	17.3	-0.10470487442228
5	234502	17.4	-0.10196462099221
5	238286	17.5	-0.056672118907995
5	242070	17.6	-0.092333353615899
5	245854	17.7	-0.070033655215383
5	249851	17.8	-0.052886327855937
5	253848	17.9	-0.064241072798004
5	257845	18	-0.037936157171333
5	261842	18.1	-0.036972666868316
5	266064	18.2	-0.039126850982162
5	270286	18.3	-0.040083228375199
5	274508	18.4	-0.03580042174374
5	278730	18.5	-0.030640657150791
5	282952	18.6	-0.019441449369448
5	287174	18.7	-0.029961766912303
5	291396	18.8	-0.025411041099172
5	295618	18.9	-0.010944809009581
5	299840	19	-0.020804008350032
5	304062	19.1	-0.018108940200185
5	308521	19.2	-0.013268226401988
5	312980	19.3	-0.00902494111566
5	317664	19.4	-0.016607550981462
5	322348	19.5	-0.010135093501286
5	327032	19.6	-0.0077398767008397
5	331716	19.7	-0.0060626611336669
5	336400	19.8	-0.0091355142066844
5	341084	19.9	-0.0080129960071847
5	345768	20	-0.0061194106264825
5	350452	20.1	-0.0043031199367972
5	355385	20.2	-0.0050595118400944
5	360318	20.3	-0.0048185372684489
5	365251	20.4	-0.0045403297691472
5	370184	20.5	-0.0031203729128864
5	375117	20.6	-0.0044883539835875
5	380050	20.7	-0.0028658614607754
5	384983	20.8	-0.002160577945955
5	389916	20.9	-0.0027015211528871
5	394849	21	-0.0032068748676166
5	400019	21.1	-0.0015620192206994
5	405450	21.2	-0.0016734908305187
5	410881	21.3	-0.0017270836707299
5	416312	21.4	-0.0013889860290645
5	421743	21.5	-0.001272875867243
5	427174	21.6	-0.0011855373144818
5	432605	21.7	-0.0014997995299916
5	438036	21.8	-0.00074765792692226
5	443467	21.9	-0.0011216527382571
5	448898	22	-0.00074709449851686
5	454329	22.1	-0.00058551342004712
5	460033	22.2	-0.00057707175184886
5	465737	22.3	-0.00055864043339019
5	471441	22.4	-0.00060377623354137
5	477145	22.5	-0.00045703587926757
5	482849	22.6	-0.0005844408026087
5	488802	22.7	-0.00029216075978036
5	494755	22.8	-0.00030774355378692
5	500708	22.9	-0.00040459880269128
5	506661	23	-0.00032376478564465
5	512614	23.1	-0.00025115790736494
5	518852	23.2	-0.0001320329518168
5	525090	23.3	-0.00030341182534853
5	531328	23.4	-0.00011096198030422
5	537566	23.5	-0.00016360410617137
5	543804	23.6	-0.00017694875591102
5	550042	23.7	-0.00014707989886759
5	556280	23.8	-0.00015525545912704
5	562518	23.9	-0.00012324294246068
5	568756	24	-7.5396392125623e-05
5	574994	24.1	-8.8805242873725e-05
5	581517	24.2	-0.00011124953341529
5	588040	24.3	-4.7357298059002e-05
5	594824	24.4	-7.9313879969067e-05
5	601608	24.5	-4.9508645433766e-05
5	608392	24.6	-6.1639462836565e-05
5	615176	24.7	-5.4662878830837e-05
5	621960	24.8	-5.3960301921956e-05
5	628744	24.9	-3.0968638640572e-05
5	635528	25	-3.323721095063e-05
5	642312	25.1	-4.413066943518e-05
5	649393	25.2	-2.6260806111658e-05
5	656474	25.3	-3.0433011733526e-05
5	663555	25.4	-2.5945603479004e-05
5	670636	25.5	-1.9757835378709e-05
5	677717	25.6	-1.8444197513847e-05
5	684798	25.7	-1.3129913574355e-05
5	691879	25.8	-1.9036579834299e-05
5	698960	25.9	-1.6608114848096e-05
5	706041	26	-9.8402538232153e-06
5	713395	26.1	-1.7250254577635e-05
5	721046	26.2	-8.0527247905065e-06
5	728697	26.3	-8.2437899411946e-06
5	736348	26.4	-1.1867886196816e-05
5	743999	26.5	-7.3399418405417e-06
5	751650	26.6	-5.2868608793438e-06
5	759289	26.7	-6.6202753828573e-06
5	766928	26.8	-6.8559695793672e-06
5	774567	26.9	-5.9260255518673e-06
5	782206	27	-2.6102306673915e-06
5	789845	27.1	-5.8688021153934e-06
5	797793	27.2	-3.49081745564e-06
5	805741	27.3	-2.9883824589676e-06
5	813689	27.4	-2.9769528587707e-06
5	821637	27.5	-4.006370114353e-06
5	829585	27.6	-2.0723934414478e-06
5	837521	27.7	-1.6606496403655e-06
5	845742	27.8	-3.1512132483487e-06
5	853963	27.9	-9.2733448391621e-07
5	862184	28	-1.7943440336228e-06
5	870405	28.1	-2.202562735005e-06
5	878935	28.2	-1.0144893434356e-06
5	887465	28.3	-1.4157573314782e-06
5	895995	28.4	-1.3570190684936e-06
5	904525	28.5	-8.0450830330573e-07
5	913055	28.6	-1.0026144538412e-06
5	921585	28.7	-8.4283285015421e-07
5	930115	28.8	-6.7778882425533e-07
5	938633	28.9	-6.463335984681e-07
5	947139	29	-5.6400669261523e-07
5	955645	29.1	-4.7374353701445e-07
5	964472	29.2	-5.8763469603514e-07
5	973299	29.3	-4.789597155501e-07
5	982423	29.4	-4.4243765468112e-07
5	991547	29.5	-2.9523858321061e-07
5	1000671	29.6	-2.9874325008526e-07
5	1009795	29.7	-3.9039460680619e-07
5	1018919	29.8	-2.3119363215652e-07
5	1028043	29.9	-2.6253283727042e-07
5	1037167	30	-1.3940669116402e-07
5	1046291	30.1	-2.1219888203045e-07
5	1055736	30.2	-2.0736692993865e-07
5	1065181	30.3	-1.5659241199259e-07
5	1074626	30.4	-1.32953060233e-07
5	1084071	30.5	-1.5955749472035e-07
5	1093504	30.6	-1.0796930808885e-07
5	1102925	30.7	-9.6912108741359e-08
5	1112346	30.8	-1.0066556839729e-07
5	1121767	30.9	-1.2231819471097e-07
5	1131497	31	-5.1015120013806e-08
5	1141227	31.1	-9.4712256133839e-08
5	1151278	31.2	-6.3506004310236e-08
5	1161329	31.3	-5.7164490151737e-08
5	1171380	31.4	-5.988191112046e-08
5	1181431	31.5	-2.9909909815535e-08
5	1191482	31.6	-5.5494117013616e-08
5	1201533	31.7	-2.9213258602242e-08
5	1211572	31.8	-3.536057370278e-08
5	1221599	31.9	-3.784353606876e-08
5	1231626	32	-1.9226703794757e-08
5	1241653	32.1	-3.0787533503787e-08
5	1251989	32.2	-2.9101990935981e-08
5	1262325	32.3	-1.5930392130466e-08
5	1272661	32.4	-1.9611265295278e-08
5	1282997	32.5	-1.4834178818857e-08
5	1293654	32.6	-1.72367440044e-08
5	1304311	32.7	-1.6148978244865e-08
5	1314968	32.8	-1.3184895635516e-08
5	1325625	32.9	-6.6262875010631e-09
5	1336282	33	-1.3079176444403e-08
5	1346939	33.1	-7.194406451974e-09
5	1357953	33.2	-7.5471715852097e-09
5	1368955	33.3	-9.7951622539993e-09
5	1379957	33.4	-5.9395036979818e-09
5	1390947	33.5	-6.0894186044509e-09
4	21	0.2	27.702930199869
4	40	0.3	27.670245453268
4	59	0.4	27.66846706942
4	78	0.5	27.669857274157
4	97	0.6	27.698936719468
4	116	0.7	27.730030377931
4	135	0.8	27.741320501317
4	154	0.9	27.772627313156
4	173	1	27.744554681713
4	192	1.1	27.717903535485
4	253	1.2	27.711243660201
4	314	1.3	27.65967243768
4	375	1.4	27.768673191394
4	436	1.5	27.671759420431
4	497	1.6	27.666898421117
4	558	1.7	27.676109386701
4	619	1.8	27.678531207165
4	680	1.9	27.696810267791
4	741	2	27.65719304058
4	802	2.1	27.726093947655
4	929	2.2	27.68420063687
4	1056	2.3	27.737861669464
4	1183	2.4	27.729756432853
4	1310	2.5	27.70030174996
4	1437	2.6	27.653924821082
4	1564	2.7	27.733440217874
4	1691	2.8	27.737743860418
4	1818	2.9	27.655336594996
4	1945	3	27.650611056471
4	2072	3.1	27.718289324334
4	2289	3.2	27.694677153041
4	2506	3.3	27.673270879982
4	2723	3.4	27.653060269521
4	2940	3.5	27.683895734425
4	3157	3.6	27.741501774092
4	3374	3.7	27.771660824867
4	3591	3.8	27.71197775312
4	3808	3.9	27.738586035857
4	4025	4	27.742377208173
4	4242	4.1	27.672237796318
4	4573	4.2	27.742498063783
4	4904	4.3	27.69694025958
4	5235	4.4	27.764893751706
4	5566	4.5	27.739281616823
4	5897	4.6	27.750030706993
4	6228	4.7	27.701168881806
4	6559	4.8	27.699657994502
4	6890	4.9	27.703186540816
4	7221	5	27.663448942222
4	7552	5.1	27.688494483877
4	8021	5.2	27.662395793246
4	8490	5.3	27.726518425827
4	8959	5.4	27.66737029762
4	9428	5.5	27.757688141922
4	9897	5.6	27.750889791248
4	10366	5.7	27.714996581806
4	10835	5.8	27.703311702893
4	11304	5.9	27.584170436295
4	11773	6	27.260075662339
4	12242	6.1	26.917321490378
4	12873	6.2	26.476469430342
4	13504	6.3	26.104182700378
4	14135	6.4	25.698172359495
4	14766	6.5	25.308403598838
4	15397	6.6	24.877997064707
4	16028	6.7	24.488648436971
4	16659	6.8	24.201886577846
4	17290	6.9	23.751886577846
4	17921	7	23.43803168299
4	18552	7.1	22.98803168299
4	19369	7.2	22.581090625096
4	20186	7.3	22.248607035107
4	21003	7.4	21.878049953369
4	21820	7.5	21.502264621352
4	22637	7.6	21.061967116538
4	23454	7.7	20.752317196708
4	24271	7.8	20.349659783695
4	25088	7.9	19.96571249333
4	25905	8	19.602508253386
4	26722	8.1	19.2294354509
4	27749	8.2	18.917347868131
4	28776	8.3	18.467347868131
4	29803	8.4	18.132382394096
4	30830	8.5	17.81753486276
4	31857	8.6	17.436152191543
4	32884	8.7	17.017034539348
4	33911	8.8	16.733285677542
4	34938	8.9	16.283285677542
4	35965	9	15.959788360863
4	36992	9.1	15.627976865131
4	38253	9.2	15.289269280927
4	39514	9.3	14.905370677476
4	40775	9.4	14.523668508697
4	42036	9.5	14.187318622878
4	43297	9.6	13.845324778002
4	44558	9.7	13.470734232684
4	45819	9.8	13.119531719516
4	47080	9.9	12.774561837788
4	48341	10	12.492582030286
4	49602	10.1	12.114687361505
4	51121	10.2	11.806046139486
4	52640	10.3	11.473670464495
4	54159	10.4	11.075728830083
4	55678	10.5	10.811357924772
4	57197	10.6	10.481051369339
4	58716	10.7	10.153823587525
4	60235	10.8	9.8985198006458
4	61754	10.9	9.5760632682345
4	63273	11	9.147819201455
4	64792	11.1	8.9319252382919
4	66593	11.2	8.5957565602765
4	68394	11.3	8.257676199651
4	70195	11.4	7.9309094316883
4	71996	11.5	7.7133424634406
4	73797	11.6	7.3689466278273
4	75598	11.7	7.1344838755198
4	77399	11.8	6.8640842270103
4	79200	11.9	6.4947600260157
4	81001	12	6.2749981001911
4	82802	12.1	6.0090609723949
4	84909	12.2	5.6895838721507
4	87016	12.3	5.4701727067233
4	89123	12.4	5.2583348743976
4	91230	12.5	5.0461411884172
4	93337	12.6	4.6883840774813
4	95444	12.7	4.5058640902597
4	97551	12.8	4.2493960792148
4	99658	12.9	4.01239901721
4	101765	13	3.7670156549685
4	103872	13.1	3.6271689810892
4	106309	13.2	3.4055364231471
4	108746	13.3	3.2506634119619
4	111183	13.4	2.9920013104977
4	113620	13.5	2.82886067112
4	116057	13.6	2.6969948222531
4	118494	13.7	2.4789033302603
4	120931	13.8	2.2695226241475
4	123368	13.9	2.2195187817878
4	125805	14	2.0454449741611
4	128242	14.1	1.8880931010232
4	131033	14.2	1.7644702994144
4	133824	14.3	1.5716948629718
4	136615	14.4	1.5224493967915
4	139406	14.5	1.3431605261087
4	142197	14.6	1.2675903474521
4	144988	14.7	1.1712705945648
4	147779	14.8	1.0851199977446
4	150570	14.9	1.0000396748927
4	153361	15	0.90655542743743
4	156152	15.1	0.8059018078419
4	159321	15.2	0.74471559324574
4	162490	15.3	0.69924543622726
4	165659	15.4	0.63784390747906
4	168828	15.5	0.57840399709456
4	171997	15.6	0.50487912669869
4	175166	15.7	0.46074062767874
4	178335	15.8	0.43784762962718
4	181504	15.9	0.37713418714116
4	184673	16	0.35195069521048
4	187842	16.1	0.31904177232586
4	191212	16.2	0.28040775454779
4	194582	16.3	0.25737762839763
4	198153	16.4	0.23314604778931
4	201724	16.5	0.21409420009463
4	205295	16.6	0.18911702318365
4	208866	16.7	0.1669416093049
4	212437	16.8	0.15128477026606
4	216008	16.9	0.13827280972041
4	219579	17	0.12755543828962
4	223150	17.1	0.11053945103807
4	226934	17.2	0.10316588987354
4	230718	17.3	0.092695402431311
4	234502	17.4	0.082498940332089
4	238286	17.5	0.07683172844129
4	242070	17.6	0.0675983930797
4	245854	17.7	0.060595027558162
4	249851	17.8	0.055306394772568
4	253848	17.9	0.048882287492768
4	257845	18	0.045088671775634
4	261842	18.1	0.041391405088803
4	266064	18.2	0.037478719990587
4	270286	18.3	0.033470397153067
4	274508	18.4	0.029890354978693
4	278730	18.5	0.026826289263614
4	282952	18.6	0.024882144326669
4	287174	18.7	0.021885967635438
4	291396	18.8	0.019344863525521
4	295618	18.9	0.018250382624563
4	299840	19	0.01616998178956
4	304062	19.1	0.014359087769542
4	308521	19.2	0.013032265129343
4	312980	19.3	0.012129771017777
4	317664	19.4	0.010469015919631
4	322348	19.5	0.009455506569502
4	327032	19.6	0.008681518899418
4	331716	19.7	0.0080752527860513
4	336400	19.8	0.0071617013653829
4	341084	19.9	0.0063604017646644
4	345768	20	0.0057484607020162
4	350452	20.1	0.0053181487083364
4	355385	20.2	0.004812197524327
4	360318	20.3	0.0043303437974821
4	365251	20.4	0.0038763108205674
4	370184	20.5	0.0035642735292787
4	375117	20.6	0.00311543813092
4	380050	20.7	0.0028288519848425
4	384983	20.8	0.002612794190247
4	389916	20.9	0.0023426420749582
4	394849	21	0.0020219545881966
4	400019	21.1	0.0018657526661266
4	405450	21.2	0.0016984035830748
4	410881	21.3	0.0015256952160018
4	416312	21.4	0.0013867966130953
4	421743	21.5	0.001259509026371
4	427174	21.6	0.0011409552949229
4	432605	21.7	0.00099097534192369
4	438036	21.8	0.00091620954923146
4	443467	21.9	0.00080404427540576
4	448898	22	0.00072933482555407
4	454329	22.1	0.00067078348354936
4	460033	22.2	0.00061307630836447
4	465737	22.3	0.00055721226502545
4	471441	22.4	0.00049683464167132
4	477145	22.5	0.00045113105374456
4	482849	22.6	0.00039268697348369
4	488802	22.7	0.00036347089750565
4	494755	22.8	0.00033269654212696
4	500708	22.9	0.00029223666185783
4	506661	23	0.00025986018329337
4	512614	23.1	0.00023474439255688
4	518852	23.2	0.00022154109737519
4	525090	23.3	0.00019119991484034
4	531328	23.4	0.00018010371680992
4	537566	23.5	0.00016374330619278
4	543804	23.6	0.00014604843060168
4	550042	23.7	0.00013134044071492
4	556280	23.8	0.00011581489480222
4	562518	23.9	0.00010349060055615
4	568756	24	9.5950961343588e-05
4	574994	24.1	8.7070437056216e-05
4	581517	24.2	7.5945483714687e-05
4	588040	24.3	7.1209753908787e-05
4	594824	24.4	6.327836591188e-05
4	601608	24.5	5.8327501368503e-05
4	608392	24.6	5.2163555084847e-05
4	615176	24.7	4.6697267201763e-05
4	621960	24.8	4.1301237009567e-05
4	628744	24.9	3.820437314551e-05
4	635528	25	3.4880652050447e-05
4	642312	25.1	3.0467585106929e-05
4	649393	25.2	2.7841504495763e-05
4	656474	25.3	2.4798203322411e-05
4	663555	25.4	2.2203642974511e-05
4	670636	25.5	2.022785943664e-05
4	677717	25.6	1.8383439685255e-05
4	684798	25.7	1.7070448327819e-05
4	691879	25.8	1.516679034439e-05
4	698960	25.9	1.350597885958e-05
4	706041	26	1.2521953477258e-05
4	713395	26.1	1.0796928019495e-05
4	721046	26.2	9.9916555404442e-06
4	728697	26.3	9.1672765463247e-06
4	736348	26.4	7.9804879266431e-06
4	743999	26.5	7.246493742589e-06
4	751650	26.6	6.7178076546546e-06
4	759289	26.7	6.0557801163689e-06
4	766928	26.8	5.3701831584322e-06
4	774567	26.9	4.7775806032454e-06
4	782206	27	4.5165575365063e-06
4	789845	27.1	3.9296773249669e-06
4	797793	27.2	3.5805955794029e-06
4	805741	27.3	3.2817573335062e-06
4	813689	27.4	2.9840620476291e-06
4	821637	27.5	2.5834250361938e-06
4	829585	27.6	2.376185692049e-06
4	837521	27.7	2.2101207280125e-06
4	845742	27.8	1.8949994031776e-06
4	853963	27.9	1.802265954786e-06
4	862184	28	1.6228315514237e-06
4	870405	28.1	1.4025752779232e-06
4	878935	28.2	1.3011263435796e-06
4	887465	28.3	1.1595506104318e-06
4	895995	28.4	1.0238487035825e-06
4	904525	28.5	9.4339787325188e-07
4	913055	28.6	8.4313642786776e-07
4	921585	28.7	7.5885314285234e-07
4	930115	28.8	6.9107426042681e-07
4	938633	28.9	6.2644090058e-07
4	947139	29	5.7004023131848e-07
4	955645	29.1	5.2266587761703e-07
4	964472	29.2	4.6390240801352e-07
4	973299	29.3	4.1600643645851e-07
4	982423	29.4	3.717626709904e-07
4	991547	29.5	3.4223881266933e-07
4	1000671	29.6	3.1236448766081e-07
4	1009795	29.7	2.7332502698019e-07
4	1018919	29.8	2.5020566376454e-07
4	1028043	29.9	2.239523800375e-07
4	1037167	30	2.1001171092109e-07
4	1046291	30.1	1.8879182271805e-07
4	1055736	30.2	1.6805512972418e-07
4	1065181	30.3	1.5239588852492e-07
4	1074626	30.4	1.3910058250162e-07
4	1084071	30.5	1.2314483302959e-07
4	1093504	30.6	1.123479022207e-07
4	1102925	30.7	1.0265669134657e-07
4	1112346	30.8	9.2590134506839e-08
4	1121767	30.9	8.0358315035743e-08
4	1131497	31	7.5256803034362e-08
4	1141227	31.1	6.5785577420978e-08
4	1151278	31.2	5.9434976989955e-08
4	1161329	31.3	5.3718527974781e-08
4	1171380	31.4	4.7730336862735e-08
4	1181431	31.5	4.4739345881181e-08
4	1191482	31.6	3.918993417982e-08
4	1201533	31.7	3.6268608319596e-08
4	1211572	31.8	3.2732550949318e-08
4	1221599	31.9	2.8948197342442e-08
4	1231626	32	2.7025526962966e-08
4	1241653	32.1	2.3946773612587e-08
4	1251989	32.2	2.1036574518989e-08
4	1262325	32.3	1.9443535305943e-08
4	1272661	32.4	1.7482408776415e-08
4	1282997	32.5	1.5998990894529e-08
4	1293654	32.6	1.4275316494089e-08
4	1304311	32.7	1.2660418669603e-08
4	1314968	32.8	1.1341929106051e-08
4	1325625	32.9	1.0679300355945e-08
4	1336282	33	9.3713827115044e-09
4	1346939	33.1	8.651942066307e-09
4	1357953	33.2	7.897224907786e-09
4	1368955	33.3	6.9177086823861e-09
4	1379957	33.4	6.3237583125879e-09
4	1390947	33.5	5.7148164521428e-09
3	2	0.1	1057.3009223455
3	21	0.2	1057.3009223455
3	40	0.3	1056.8451398025
3	59	0.4	1056.3898950054
3	78	0.5	1055.9346794671
3	97	0.6	1055.4794410565
3	116	0.7	1055.0237242162
3	135	0.8	1054.5674958074
3	154	0.9	1054.1110816478
3	173	1	1053.6541524128
3	192	1.1	1053.1976850429
3	253	1.2	1052.741656151
3	314	1.3	1052.2857368308
3	375	1.4	1051.8306659862
3	436	1.5	1051.3738018064
3	497	1.6	1050.9185321007
3	558	1.7	1050.4633423707
3	619	1.8	1050.0080010972
3	680	1.9	1049.5526199786
3	741	2	1049.0969625889
3	802	2.1	1048.6419615981
3	929	2.2	1048.1858270873
3	1056	2.3	1047.7303817823
3	1183	2.4	1047.2740536755
3	1310	2.5	1046.8178589115
3	1437	2.6	1046.3621487198
3	1564	2.7	1045.907201496
3	1691	2.8	1045.4509461284
3	1818	2.9	1044.9946199596
3	1945	3	1044.5396495101
3	2072	3.1	1044.0847568025
3	2289	3.2	1043.6287506891
3	2506	3.3	1043.1731330302
3	2723	3.4	1042.7178675356
3	2940	3.5	1042.2628031946
3	3157	3.6	1041.8068519296
3	3374	3.7	1041.3499518983
3	3591	3.8	1040.8925551501
3	3808	3.9	1040.4361413768
3	4025	4	1039.9792893674
3	4242	4.1	1039.5223749178
3	4573	4.2	1039.066615658
3	4904	4.3	1038.6096992179
3	5235	4.4	1038.1535331107
3	5566	4.5	1037.6962478156
3	5897	4.6	1037.2393843501
3	6228	4.7	1036.7337979696
3	6559	4.8	1036.1709033721
3	6890	4.9	1035.5529254326
3	7221	5	1034.9633515893
3	7552	5.1	1034.6797082876
3	8021	5.2	1034.8868865062
3	8490	5.3	1035.1520445612
3	8959	5.4	1035.16382725
3	9428	5.5	1034.7245411978
3	9897	5.6	1034.2838211326
3	10366	5.7	1033.8432090076
3	10835	5.8	1033.4031667736
3	11304	5.9	1032.9633100652
3	11773	6	1032.5253450109
3	12242	6.1	1032.0925257408
3	12873	6.2	1031.6651485175
3	13504	6.3	1031.2447708811
3	14135	6.4	1030.830304192
3	14766	6.5	1030.4222838936
3	15397	6.6	1030.0204521118
3	16028	6.7	1029.6254540691
3	16659	6.8	1029.2366378723
3	17290	6.9	1028.8523747097
3	17921	7	1028.4752563796
3	18552	7.1	1028.1031212508
3	19369	7.2	1027.7381309544
3	20186	7.3	1027.3796018261
3	21003	7.4	1027.0263516746
3	21820	7.5	1026.678985008
3	22637	7.6	1026.3387630767
3	23454	7.7	1026.1674956072
3	24271	7.8	1025.9987460867
3	25088	7.9	1025.8332708148
3	25905	8	1025.6709176483
3	26722	8.1	1025.511517913
3	27749	8.2	1025.3551518561
3	28776	8.3	1025.2013235703
3	29803	8.4	1025.051154504
3	30830	8.5	1024.9037092425
3	31857	8.6	1024.758824195
3	32884	8.7	1024.6170403983
3	33911	8.8	1024.4786646983
3	34938	8.9	1024.3425963303
3	35965	9	1024.2101871817
3	36992	9.1	1024.0804085836
3	38253	9.2	1023.9533281436
3	39514	9.3	1023.8290019377
3	40775	9.4	1023.7077974413
3	42036	9.5	1023.5896967939
3	43297	9.6	1023.4743312088
3	44558	9.7	1023.3617465806
3	45819	9.8	1023.2522079724
3	47080	9.9	1023.1455252022
3	48341	10	1023.0416475887
3	49602	10.1	1022.9400629219
3	51121	10.2	1022.841551143
3	52640	10.3	1022.7455491108
3	54159	10.4	1022.6522498242
3	55678	10.5	1022.5621864394
3	57197	10.6	1022.4742728128
3	58716	10.7	1022.3890451066
3	60235	10.8	1022.3064782855
3	61754	10.9	1022.2259874924
3	63273	11	1022.1481187865
3	64792	11.1	1022.0737323896
3	66593	11.2	1022.0011015558
3	68394	11.3	1021.9312043109
3	70195	11.4	1021.8640561999
3	71996	11.5	1021.7995652252
3	73797	11.6	1021.7368434178
3	75598	11.7	1021.6769220992
3	77399	11.8	1021.6189073377
3	79200	11.9	1021.5630913577
3	81001	12	1021.5102785739
3	82802	12.1	1021.459252806
3	84909	12.2	1021.4103895322
3	87016	12.3	1021.364124118
3	89123	12.4	1021.3196428675
3	91230	12.5	1021.2768841972
3	93337	12.6	1021.2358510009
3	95444	12.7	1021.1977269419
3	97551	12.8	1021.1610870622
3	99658	12.9	1021.1265326776
3	101765	13	1021.093905458
3	103872	13.1	1021.0632735975
3	106309	13.2	1021.033778914
3	108746	13.3	1021.0060864577
3	111183	13.4	1020.9796533665
3	113620	13.5	1020.9553236119
3	116057	13.6	1020.9323204514
3	118494	13.7	1020.9103895712
3	120931	13.8	1020.8902321235
3	123368	13.9	1020.8717772757
3	125805	14	1020.8537290392
3	128242	14.1	1020.837096301
3	131033	14.2	1020.8217430851
3	133824	14.3	1020.8036109095
3	136615	14.4	1020.7869936145
3	139406	14.5	1020.7708969843
3	142197	14.6	1020.7566959487
3	144988	14.7	1020.7432939052
3	147779	14.8	1020.7309102361
3	150570	14.9	1020.7194374244
3	153361	15	1020.7088641543
3	156152	15.1	1020.6992792791
3	159321	15.2	1020.6907585997
3	162490	15.3	1020.6828848329
3	165659	15.4	1020.6754918153
3	168828	15.5	1020.668747987
3	171997	15.6	1020.6626326079
3	175166	15.7	1020.6572945963
3	178335	15.8	1020.6524232544
3	181504	15.9	1020.6477939568
3	184673	16	1020.6438065734
3	187842	16.1	1020.6400854512
3	191212	16.2	1020.6367122702
3	194582	16.3	1020.6337475609
3	198153	16.4	1020.6310263456
3	201724	16.5	1020.6285613273
3	205295	16.6	1020.6262977413
3	208866	16.7	1020.6242982352
3	212437	16.8	1020.6225331865
3	216008	16.9	1020.6209336753
3	219579	17	1020.6194717375
3	223150	17.1	1020.6181231129
3	226934	17.2	1020.6169543958
3	230718	17.3	1020.6158636382
3	234502	17.4	1020.6148835836
3	238286	17.5	1020.6140113346
3	242070	17.6	1020.6131990042
3	245854	17.7	1020.6124842965
3	249851	17.8	1020.6118436343
3	253848	17.9	1020.6112588881
3	257845	18	1020.6107420629
3	261842	18.1	1020.6102653472
3	266064	18.2	1020.609827722
3	270286	18.3	1020.6094314651
3	274508	18.4	1020.6090775876
3	278730	18.5	1020.6087615613
3	282952	18.6	1020.608477931
3	287174	18.7	1020.6082148558
3	291396	18.8	1020.6079834587
3	295618	18.9	1020.6077789284
3	299840	19	1020.6075859698
3	304062	19.1	1020.607415007
3	308521	19.2	1020.6072631905
3	312980	19.3	1020.6071254023
3	317664	19.4	1020.606997156
3	322348	19.5	1020.6068864687
3	327032	19.6	1020.606786497
3	331716	19.7	1020.6066947086
3	336400	19.8	1020.6066093302
3	341084	19.9	1020.6065336106
3	345768	20	1020.606466363
3	350452	20.1	1020.6064055854
3	355385	20.2	1020.6063493574
3	360318	20.3	1020.6062984788
3	365251	20.4	1020.6062526947
3	370184	20.5	1020.606211711
3	375117	20.6	1020.6061740265
3	380050	20.7	1020.6061410874
3	384983	20.8	1020.6061111784
3	389916	20.9	1020.6060835537
3	394849	21	1020.6060587853
3	400019	21.1	1020.6060374075
3	405450	21.2	1020.6060176812
3	410881	21.3	1020.6059997242
3	416312	21.4	1020.6059835933
3	421743	21.5	1020.6059689309
3	427174	21.6	1020.6059556143
3	432605	21.7	1020.6059435511
3	438036	21.8	1020.6059330737
3	443467	21.9	1020.6059233867
3	448898	22	1020.6059148857
3	454329	22.1	1020.6059071745
3	460033	22.2	1020.6059000825
3	465737	22.3	1020.6058936005
3	471441	22.4	1020.6058877092
3	477145	22.5	1020.6058824562
3	482849	22.6	1020.6058776865
3	488802	22.7	1020.6058735346
3	494755	22.8	1020.6058696917
3	500708	22.9	1020.6058661742
3	506661	23	1020.6058630844
3	512614	23.1	1020.6058603369
3	518852	23.2	1020.605857855
3	525090	23.3	1020.6058555127
3	531328	23.4	1020.6058534912
3	537566	23.5	1020.605851587
3	543804	23.6	1020.6058498557
3	550042	23.7	1020.6058483116
3	556280	23.8	1020.6058469229
3	562518	23.9	1020.6058456984
3	568756	24	1020.6058446042
3	574994	24.1	1020.6058435898
3	581517	24.2	1020.6058426692
3	588040	24.3	1020.6058418662
3	594824	24.4	1020.6058411133
3	601608	24.5	1020.6058404443
3	608392	24.6	1020.6058398276
3	615176	24.7	1020.6058392761
3	621960	24.8	1020.6058387824
3	628744	24.9	1020.6058383457
3	635528	25	1020.6058379418
3	642312	25.1	1020.605837573
3	649393	25.2	1020.6058372509
3	656474	25.3	1020.6058369565
3	663555	25.4	1020.6058366943
3	670636	25.5	1020.6058364596
3	677717	25.6	1020.6058362457
3	684798	25.7	1020.6058360513
3	691879	25.8	1020.6058358708
3	698960	25.9	1020.6058357105
3	706041	26	1020.6058355677
3	713395	26.1	1020.6058354353
3	721046	26.2	1020.6058353211
3	728697	26.3	1020.6058352155
3	736348	26.4	1020.6058351186
3	743999	26.5	1020.6058350342
3	751650	26.6	1020.6058349576
3	759289	26.7	1020.6058348866
3	766928	26.8	1020.6058348225
3	774567	26.9	1020.6058347657
3	782206	27	1020.6058347152
3	789845	27.1	1020.6058346675
3	797793	27.2	1020.6058346259
3	805741	27.3	1020.6058345881
3	813689	27.4	1020.6058345534
3	821637	27.5	1020.6058345218
3	829585	27.6	1020.6058344945
3	837521	27.7	1020.6058344694
3	845742	27.8	1020.605834446
3	853963	27.9	1020.605834426
3	862184	28	1020.6058344069
3	870405	28.1	1020.6058343898
3	878935	28.2	1020.6058343749
3	887465	28.3	1020.6058343612
3	895995	28.4	1020.6058343489
3	904525	28.5	1020.6058343381
3	913055	28.6	1020.6058343281
3	921585	28.7	1020.6058343192
3	930115	28.8	1020.6058343112
3	938633	28.9	1020.6058343039
3	947139	29	1020.6058342973
3	955645	29.1	1020.6058342912
3	964472	29.2	1020.6058342857
3	973299	29.3	1020.6058342808
3	982423	29.4	1020.6058342764
3	991547	29.5	1020.6058342725
3	1000671	29.6	1020.6058342689
3	1009795	29.7	1020.6058342656
3	1018919	29.8	1020.6058342627
3	1028043	29.9	1020.60583426
3	1037167	30	1020.6058342577
3	1046291	30.1	1020.6058342554
3	1055736	30.2	1020.6058342534
3	1065181	30.3	1020.6058342517
3	1074626	30.4	1020.60583425
3	1084071	30.5	1020.6058342486
3	1093504	30.6	1020.6058342473
3	1102925	30.7	1020.6058342461
3	1112346	30.8	1020.605834245
3	1121767	30.9	1020.605834244
3	1131497	31	1020.6058342432
3	1141227	31.1	1020.6058342424
3	1151278	31.2	1020.6058342417
3	1161329	31.3	1020.6058342411
3	1171380	31.4	1020.6058342405
3	1181431	31.5	1020.60583424
3	1191482	31.6	1020.6058342395
3	1201533	31.7	1020.6058342391
3	1211572	31.8	1020.6058342387
3	1221599	31.9	1020.6058342384
3	1231626	32	1020.6058342381
3	1241653	32.1	1020.6058342378
3	1251989	32.2	1020.6058342375
3	1262325	32.3	1020.6058342373
3	1272661	32.4	1020.6058342371
3	1282997	32.5	1020.6058342369
3	1293654	32.6	1020.6058342367
3	1304311	32.7	1020.6058342366
3	1314968	32.8	1020.6058342365
3	1325625	32.9	1020.6058342363
3	1336282	33	1020.6058342362
3	1346939	33.1	1020.6058342361
3	1357953	33.2	1020.605834236
3	1368955	33.3	1020.6058342359
3	1379957	33.4	1020.6058342359
3	1390947	33.5	1020.6058342358
2	2	0.1	894.48059027951
2	21	0.2	894.48059027951
2	40	0.3	897.21318030651
2	59	0.4	899.94254634198
2	78	0.5	902.67173695939
2	97	0.6	905.40106470525
2	116	0.7	908.13326081924
2	135	0.8	910.86852398139
2	154	0.9	913.6049007903
2	173	1	916.34436567262
2	192	1.1	919.08106149793
2	253	1.2	921.81512848016
2	314	1.3	924.54853853879
2	375	1.4	927.27686166231
2	436	1.5	930.0159365139
2	497	1.6	932.74545188561
2	558	1.7	935.47448777309
2	619	1.8	938.20443222123
2	680	1.9	940.93461555538
2	741	2	943.66660599878
2	802	2.1	946.39468940413
2	929	2.2	949.12956913986
2	1056	2.3	951.86031655292
2	1183	2.4	954.59635704732
2	1310	2.5	957.33159804767
2	1437	2.6	960.06393366164
2	1564	2.7	962.79169469244
2	1691	2.8	965.52729905839
2	1818	2.9	968.26332793221
2	1945	3	970.99122821925
2	2072	3.1	973.71866238296
2	2289	3.2	976.45277227689
2	2506	3.3	979.18455308512
2	2723	3.4	981.9142223957
2	2940	3.5	984.64187622972
2	3157	3.6	987.3725082956
2	3374	3.7	990.10882239773
2	3591	3.8	992.84811127161
2	3808	3.9	995.58151323886
2	4025	4	998.31753974388
2	4242	4.1	1001.0539401954
2	4573	4.2	1003.7834223675
2	4904	4.3	1006.5198347398
2	5235	4.4	1009.251753467
2	5566	4.5	1011.9903748631
2	5897	4.6	1014.7264699775
2	6228	4.7	1017.4156094754
2	6559	4.8	1020.0424509304
2	6890	4.9	1022.6562016792
2	7221	5	1025.2728012682
2	7552	5.1	1027.9405815115
2	8021	5.2	1030.6125537131
2	8490	5.3	1033.2825340491
2	8959	5.4	1036.0289275254
2	9428	5.5	1038.7700919283
2	9897	5.6	1041.520204636
2	10366	5.7	1044.2696437923
2	10835	5.8	1047.0155268032
2	11304	5.9	1049.7602521265
2	11773	6	1052.493173444
2	12242	6.1	1055.1939848411
2	12873	6.2	1057.8608376247
2	13504	6.3	1060.4840126767
2	14135	6.4	1063.070303156
2	14766	6.5	1065.6163678718
2	15397	6.6	1068.1238159702
2	16028	6.7	1070.5886212349
2	16659	6.8	1073.0148515073
2	17290	6.9	1075.4126706444
2	17921	7	1077.7659057112
2	18552	7.1	1080.0880453809
2	19369	7.2	1082.3656009804
2	20186	7.3	1084.6028386049
2	21003	7.4	1086.8071351811
2	21820	7.5	1088.9747185508
2	22637	7.6	1091.1052128126
2	23454	7.7	1093.2116165265
2	24271	7.8	1095.2870522051
2	25088	7.9	1097.322218185
2	25905	8	1099.3189856623
2	26722	8.1	1101.2794291459
2	27749	8.2	1103.2025616827
2	28776	8.3	1105.0944823939
2	29803	8.4	1106.9413986823
2	30830	8.5	1108.7548151313
2	31857	8.6	1110.5367437327
2	32884	8.7	1112.2805303187
2	33911	8.8	1113.9824010203
2	34938	8.9	1115.6558940469
2	35965	9	1117.2843826508
2	36992	9.1	1118.8805183436
2	38253	9.2	1120.4434696258
2	39514	9.3	1121.9725468206
2	40775	9.4	1123.463230382
2	42036	9.5	1124.9157399751
2	43297	9.6	1126.3346112739
2	44558	9.7	1127.719279827
2	45819	9.8	1129.0664856439
2	47080	9.9	1130.3785677579
2	48341	10	1131.6561494932
2	49602	10.1	1132.9055304764
2	51121	10.2	1134.1171182787
2	52640	10.3	1135.2978389254
2	54159	10.4	1136.445318738
2	55678	10.5	1137.553000476
2	57197	10.6	1138.6342425252
2	58716	10.7	1139.6824506725
2	60235	10.8	1140.6979328255
2	61754	10.9	1141.6878820907
2	63273	11	1142.6455825334
2	64792	11.1	1143.5604543606
2	66593	11.2	1144.4537346696
2	68394	11.3	1145.3133948069
2	70195	11.4	1146.1392435853
2	71996	11.5	1146.9324124754
2	73797	11.6	1147.7038225304
2	75598	11.7	1148.440789617
2	77399	11.8	1149.154308124
2	79200	11.9	1149.8407840087
2	81001	12	1150.4903238434
2	82802	12.1	1151.1178853256
2	84909	12.2	1151.7188504814
2	87016	12.3	1152.2878647873
2	89123	12.4	1152.8349358202
2	91230	12.5	1153.3608209878
2	93337	12.6	1153.8654847014
2	95444	12.7	1154.3343691877
2	97551	12.8	1154.7849998815
2	99658	12.9	1155.2099812535
2	101765	13	1155.6112605901
2	103872	13.1	1155.9879991788
2	106309	13.2	1156.3507517256
2	108746	13.3	1156.6913388384
2	111183	13.4	1157.0164371279
2	113620	13.5	1157.3156666651
2	116057	13.6	1157.5985805349
2	118494	13.7	1157.8683065239
2	120931	13.8	1158.1162212202
2	123368	13.9	1158.343195788
2	125805	14	1158.5651694802
2	128242	14.1	1158.7697340807
2	131033	14.2	1158.9585619475
2	133824	14.3	1159.1346720411
2	136615	14.4	1159.2914977635
2	139406	14.5	1159.4434097103
2	142197	14.6	1159.5774319844
2	144988	14.7	1159.7039137695
2	147779	14.8	1159.8207846465
2	150570	14.9	1159.9290593068
2	153361	15	1160.0288445438
2	156152	15.1	1160.1193018031
2	159321	15.2	1160.1997157156
2	162490	15.3	1160.2740243894
2	165659	15.4	1160.3437959928
2	168828	15.5	1160.4074408732
2	171997	15.6	1160.4651547633
2	175166	15.7	1160.5155322479
2	178335	15.8	1160.5615055366
2	181504	15.9	1160.6051945328
2	184673	16	1160.642825464
2	187842	16.1	1160.6779435542
2	191212	16.2	1160.7097779501
2	194582	16.3	1160.7377573942
2	198153	16.4	1160.763438863
2	201724	16.5	1160.7867024736
2	205295	16.6	1160.8080650666
2	208866	16.7	1160.8269354049
2	212437	16.8	1160.843593052
2	216008	16.9	1160.8586884398
2	219579	17	1160.8724854774
2	223150	17.1	1160.8852131221
2	226934	17.2	1160.8962428898
2	230718	17.3	1160.9065369142
2	234502	17.4	1160.9157861799
2	238286	17.5	1160.9240180296
2	242070	17.6	1160.9316843977
2	245854	17.7	1160.9384294518
2	249851	17.8	1160.9444757011
2	253848	17.9	1160.9499942438
2	257845	18	1160.954871781
2	261842	18.1	1160.9593707863
2	266064	18.2	1160.9635008736
2	270286	18.3	1160.9672405482
2	274508	18.4	1160.9705802672
2	278730	18.5	1160.973562765
2	282952	18.6	1160.9762395264
2	287174	18.7	1160.9787222986
2	291396	18.8	1160.9809061084
2	295618	18.9	1160.9828363636
2	299840	19	1160.9846574101
2	304062	19.1	1160.9862708716
2	308521	19.2	1160.9877036397
2	312980	19.3	1160.9890040158
2	317664	19.4	1160.9902143398
2	322348	19.5	1160.9912589516
2	327032	19.6	1160.9922024342
2	331716	19.7	1160.9930686872
2	336400	19.8	1160.9938744463
2	341084	19.9	1160.99458905
2	345768	20	1160.995223699
2	350452	20.1	1160.9957972877
2	355385	20.2	1160.9963279394
2	360318	20.3	1160.9968081066
2	365251	20.4	1160.9972401939
2	370184	20.5	1160.9976269771
2	375117	20.6	1160.9979826249
2	380050	20.7	1160.9982934873
2	384983	20.8	1160.9985757538
2	389916	20.9	1160.9988364617
2	394849	21	1160.9990702135
2	400019	21.1	1160.9992719667
2	405450	21.2	1160.9994581339
2	410881	21.3	1160.9996276028
2	416312	21.4	1160.9997798386
2	421743	21.5	1160.999918215
2	427174	21.6	1161.0000438904
2	432605	21.7	1161.0001577364
2	438036	21.8	1161.0002566172
2	443467	21.9	1161.0003480377
2	448898	22	1161.0004282663
2	454329	22.1	1161.0005010402
2	460033	22.2	1161.0005679719
2	465737	22.3	1161.0006291454
2	471441	22.4	1161.0006847448
2	477145	22.5	1161.0007343196
2	482849	22.6	1161.000779334
2	488802	22.7	1161.0008185168
2	494755	22.8	1161.0008547844
2	500708	22.9	1161.0008879813
2	506661	23	1161.000917141
2	512614	23.1	1161.0009430702
2	518852	23.2	1161.0009664933
2	525090	23.3	1161.000988599
2	531328	23.4	1161.0010076771
2	537566	23.5	1161.0010256481
2	543804	23.6	1161.0010419866
2	550042	23.7	1161.0010565595
2	556280	23.8	1161.0010696648
2	562518	23.9	1161.001081221
2	568756	24	1161.0010915474
2	574994	24.1	1161.0011011215
2	581517	24.2	1161.0011098095
2	588040	24.3	1161.0011173875
2	594824	24.4	1161.0011244929
2	601608	24.5	1161.0011308069
2	608392	24.6	1161.0011366269
2	615176	24.7	1161.0011418318
2	621960	24.8	1161.0011464913
2	628744	24.9	1161.0011506124
2	635528	25	1161.0011544245
2	642312	25.1	1161.0011579049
2	649393	25.2	1161.001160945
2	656474	25.3	1161.0011637231
2	663555	25.4	1161.0011661975
2	670636	25.5	1161.001168413
2	677717	25.6	1161.0011704313
2	684798	25.7	1161.0011722657
2	691879	25.8	1161.001173969
2	698960	25.9	1161.0011754823
2	706041	26	1161.00117683
2	713395	26.1	1161.0011780794
2	721046	26.2	1161.0011791568
2	728697	26.3	1161.0011801538
2	736348	26.4	1161.0011810685
2	743999	26.5	1161.0011818648
2	751650	26.6	1161.0011825878
2	759289	26.7	1161.0011832582
2	766928	26.8	1161.0011838624
2	774567	26.9	1161.0011843983
2	782206	27	1161.001184875
2	789845	27.1	1161.0011853256
2	797793	27.2	1161.0011857177
2	805741	27.3	1161.001186075
2	813689	27.4	1161.0011864025
2	821637	27.5	1161.0011867002
2	829585	27.6	1161.001186958
2	837521	27.7	1161.0011871951
2	845742	27.8	1161.0011874156
2	853963	27.9	1161.0011876047
2	862184	28	1161.0011877846
2	870405	28.1	1161.0011879465
2	878935	28.2	1161.0011880864
2	887465	28.3	1161.0011882163
2	895995	28.4	1161.001188332
2	904525	28.5	1161.0011884341
2	913055	28.6	1161.0011885283
2	921585	28.7	1161.0011886124
2	930115	28.8	1161.0011886881
2	938633	28.9	1161.0011887571
2	947139	29	1161.0011888196
2	955645	29.1	1161.0011888764
2	964472	29.2	1161.0011889286
2	973299	29.3	1161.0011889749
2	982423	29.4	1161.0011890164
2	991547	29.5	1161.0011890535
2	1000671	29.6	1161.0011890876
2	1009795	29.7	1161.0011891188
2	1018919	29.8	1161.0011891461
2	1028043	29.9	1161.001189171
2	1037167	30	1161.0011891934
2	1046291	30.1	1161.0011892143
2	1055736	30.2	1161.0011892332
2	1065181	30.3	1161.00118925
2	1074626	30.4	1161.0011892652
2	1084071	30.5	1161.001189279
2	1093504	30.6	1161.0011892913
2	1102925	30.7	1161.0011893025
2	1112346	30.8	1161.0011893128
2	1121767	30.9	1161.001189322
2	1131497	31	1161.00118933
2	1141227	31.1	1161.0011893375
2	1151278	31.2	1161.0011893441
2	1161329	31.3	1161.00118935
2	1171380	31.4	1161.0011893554
2	1181431	31.5	1161.0011893602
2	1191482	31.6	1161.0011893646
2	1201533	31.7	1161.0011893685
2	1211572	31.8	1161.0011893722
2	1221599	31.9	1161.0011893754
2	1231626	32	1161.0011893783
2	1241653	32.1	1161.001189381
2	1251989	32.2	1161.0011893834
2	1262325	32.3	1161.0011893855
2	1272661	32.4	1161.0011893874
2	1282997	32.5	1161.0011893892
2	1293654	32.6	1161.0011893908
2	1304311	32.7	1161.0011893922
2	1314968	32.8	1161.0011893935
2	1325625	32.9	1161.0011893946
2	1336282	33	1161.0011893957
2	1346939	33.1	1161.0011893966
2	1357953	33.2	1161.0011893975
2	1368955	33.3	1161.0011893983
2	1379957	33.4	1161.0011893989
2	1390947	33.5	1161.0011893996
20	314	1.3	1.8275735790976
20	375	1.4	3.7961288074971
20	436	1.5	8.8812587618875
20	497	1.6	0.34239853967304
20	558	1.7	5.4582075904108
20	619	1.8	6.697955622094
20	680	1.9	6.0777273609816
20	741	2	4.6862782194848
20	802	2.1	5.2132322838404
20	929	2.2	9.2269737247381
20	1056	2.3	1.2941715510252
20	1183	2.4	5.4511022622673
20	1310	2.5	8.9122355414833
20	1437	2.6	1.4076137361317
20	1564	2.7	6.8885790940339
20	1691	2.8	5.8994256772823
20	1818	2.9	9.2570175143916
20	1945	3	0.973
20	2072	3.1	8.1801645975974
20	2289	3.2	8.3028596599575
20	2506	3.3	6.1716433237536
20	2723	3.4	0.973
20	2940	3.5	11.08323406967
20	3157	3.6	2.8138508289241
20	3374	3.7	10.56319615801
20	3591	3.8	0.74290144373785
20	3808	3.9	9.2509812411428
20	4025	4	4.2597835341686
20	4242	4.1	4.2404956808195
20	4573	4.2	0.973
20	4904	4.3	15.301175135153
20	5235	4.4	1.6208808756491
20	5566	4.5	3.8436824935525
20	5897	4.6	5.4795687652498
20	6228	4.7	5.3907272524639
20	6559	4.8	5.1504899979814
20	6890	4.9	1.7538992590504
20	7221	5	3.0397411803353
20	7552	5.1	4.0976007636648
20	8021	5.2	10.974150318467
20	8490	5.3	0.973
20	8959	5.4	15.014273018875
20	9428	5.5	0.45793699444842
20	9897	5.6	7.7522103979319
20	10366	5.7	1.1777255122397
20	10835	5.8	6.6827997842114
20	11304	5.9	7.1198947361916
20	11773	6	0.973
20	12242	6.1	0.973
20	12873	6.2	0.973
20	13504	6.3	0.973
20	14135	6.4	0.973
20	14766	6.5	0.973
20	15397	6.6	0.973
20	16028	6.7	0.973
20	16659	6.8	0.973
20	17290	6.9	0.973
20	17921	7	0.973
20	18552	7.1	0.973
20	19369	7.2	0.973
20	20186	7.3	0.973
20	21003	7.4	0.973
20	21820	7.5	0.973
20	22637	7.6	0.973
20	23454	7.7	0.973
20	24271	7.8	0.973
20	25088	7.9	0.973
20	25905	8	0.973
20	26722	8.1	0.973
20	27749	8.2	0.973
20	28776	8.3	0.973
20	29803	8.4	0.973
20	30830	8.5	0.973
20	31857	8.6	0.973
20	32884	8.7	0.973
20	33911	8.8	0.973
20	34938	8.9	0.973
20	35965	9	0.973
20	36992	9.1	0.973
20	38253	9.2	0.973
20	39514	9.3	0.973
20	40775	9.4	0.973
20	42036	9.5	0.973
20	43297	9.6	0.973
20	44558	9.7	0.973
20	45819	9.8	0.973
20	47080	9.9	0.973
20	48341	10	0.973
20	49602	10.1	0.973
20	51121	10.2	0.973
20	52640	10.3	0.973
20	54159	10.4	0.973
20	55678	10.5	0.973
20	57197	10.6	0.973
20	58716	10.7	0.973
20	60235	10.8	0.973
20	61754	10.9	0.973
20	63273	11	0.973
20	64792	11.1	0.973
20	66593	11.2	0.973
20	68394	11.3	0.973
20	70195	11.4	0.973
20	71996	11.5	0.973
20	73797	11.6	0.973
20	75598	11.7	0.973
20	77399	11.8	0.973
20	79200	11.9	0.973
20	81001	12	6.8058654161951
20	82802	12.1	4.991514264575
20	84909	12.2	6.8261565434796
20	87016	12.3	5.095115947393
20	89123	12.4	7.2766413546846
20	91230	12.5	6.9297225571459
20	93337	12.6	6.507490094706
20	95444	12.7	7.419251363296
20	97551	12.8	0.973
20	99658	12.9	0.973
20	101765	13	0.973
20	103872	13.1	0.973
20	106309	13.2	0.973
20	108746	13.3	0.973
20	111183	13.4	0.973
20	113620	13.5	0.973
20	116057	13.6	0.973
20	118494	13.7	0.973
20	120931	13.8	0.973
20	123368	13.9	0.973
20	125805	14	0.973
20	128242	14.1	0.973
20	131033	14.2	0.973
20	133824	14.3	0.973
20	136615	14.4	0.973
20	139406	14.5	0.973
20	142197	14.6	0.973
20	144988	14.7	0.973
20	147779	14.8	0.973
20	150570	14.9	0.973
20	153361	15	0.973
20	156152	15.1	0.973
20	159321	15.2	0.973
20	162490	15.3	0.973
20	165659	15.4	0.973
20	168828	15.5	0.973
20	171997	15.6	0.973
20	175166	15.7	0.973
20	178335	15.8	0.973
20	181504	15.9	0.973
20	184673	16	0.973
20	187842	16.1	0.973
20	191212	16.2	0.973
20	194582	16.3	0.973
20	198153	16.4	0.973
20	201724	16.5	0.973
20	205295	16.6	0.973
20	208866	16.7	0.973
20	212437	16.8	0.973
20	216008	16.9	0.973
20	219579	17	0.973
20	223150	17.1	0.973
20	226934	17.2	0.973
20	230718	17.3	0.973
20	234502	17.4	0.973
20	238286	17.5	0.973
20	242070	17.6	0.973
20	245854	17.7	0.973
20	249851	17.8	0.973
20	253848	17.9	0.973
20	257845	18	0.973
20	261842	18.1	0.973
20	266064	18.2	0.973
20	270286	18.3	0.973
20	274508	18.4	0.973
20	278730	18.5	0.973
20	282952	18.6	0.973
20	287174	18.7	0.973
20	291396	18.8	0.973
20	295618	18.9	0.973
20	299840	19	0.973
20	304062	19.1	0.973
20	308521	19.2	0.973
20	312980	19.3	0.973
20	317664	19.4	0.973
20	322348	19.5	0.973
20	327032	19.6	1.1132512588317
20	331716	19.7	0.973
20	336400	19.8	1.1129142782196
20	341084	19.9	1.1122307565495
20	345768	20	1.1117238257766
20	350452	20.1	1.1119477280485
20	355385	20.2	1.1119849411351
20	360318	20.3	1.1115755628942
20	365251	20.4	1.1116044840197
20	370184	20.5	1.1115866342273
20	375117	20.6	1.1114692623808
20	380050	20.7	1.1112543258517
20	384983	20.8	1.1111430608881
20	389916	20.9	1.1111506773041
20	394849	21	1.1109200660185
20	400019	21.1	1.1109097301004
20	405450	21.2	1.1108494330667
20	410881	21.3	1.1107939217566
20	416312	21.4	1.1106601164362
20	421743	21.5	1.1106652675808
20	427174	21.6	1.1105547208671
20	432605	21.7	1.1105418542674
20	438036	21.8	1.1104723606613
20	443467	21.9	1.1104270573762
20	448898	22	1.1104043984537
20	454329	22.1	1.1103579181171
20	460033	22.2	1.1103240081619
20	465737	22.3	1.1103023896428
20	471441	22.4	1.1102597739043
20	477145	22.5	1.110245717432
20	482849	22.6	1.1102208912556
20	488802	22.7	1.1102032397696
20	494755	22.8	1.1101755430605
20	500708	22.9	1.1101580992648
20	506661	23	1.1101440457368
20	512614	23.1	1.1101318640897
20	518852	23.2	1.1101201636294
20	525090	23.3	1.1101084711215
20	531328	23.4	1.1100962847219
20	537566	23.5	1.1100890173513
20	543804	23.6	1.11008256822
20	550042	23.7	1.1100729577935
20	556280	23.8	1.1100660809743
20	562518	23.9	1.1100603626476
20	568756	24	1.1100549369402
20	574994	24.1	1.1100471641641
20	581517	24.2	1.1100427195155
20	588040	24.3	1.1100404173673
20	594824	24.4	1.1100349191201
20	601608	24.5	1.1100330446318
20	608392	24.6	1.1100284779001
20	615176	24.7	1.1100256733231
20	621960	24.8	1.1100237246114
20	628744	24.9	1.1100213142
20	635528	25	1.1100190942261
20	642312	25.1	1.110017386385
20	649393	25.2	1.1100160658185
20	656474	25.3	1.1100146727387
20	663555	25.4	1.1100130398826
20	670636	25.5	1.1100116630174
20	677717	25.6	1.110010397916
20	684798	25.7	1.1100096642961
20	691879	25.8	1.110008308119
20	698960	25.9	1.1100077126516
20	706041	26	1.1100070100045
20	713395	26.1	1.1100063598373
20	721046	26.2	1.1100055400289
20	728697	26.3	1.1100051327015
20	736348	26.4	1.1100045175248
20	743999	26.5	1.1100041897897
20	751650	26.6	1.1100037950936
20	759289	26.7	1.110003433349
20	766928	26.8	1.1100030784222
20	774567	26.9	1.1100027024423
20	782206	27	1.1100025349254
20	789845	27.1	1.110002275754
20	797793	27.2	1.1100020861393
20	805741	27.3	1.1100018399664
20	813689	27.4	1.1100016504836
20	821637	27.5	1.1100014851629
20	829585	27.6	1.1100013678647
20	837521	27.7	1.1100012059759
20	845742	27.8	1.1100011098595
20	853963	27.9	1.1100009989535
20	862184	28	1.1100008769543
20	870405	28.1	1.110000802659
20	878935	28.2	1.1100007418606
20	887465	28.3	1.1100006612311
20	895995	28.4	1.1100005999254
20	904525	28.5	1.1100005188231
20	913055	28.6	1.1100004875347
20	921585	28.7	1.1100004300063
20	930115	28.8	1.110000387703
20	938633	28.9	1.110000349991
20	947139	29	1.1100003252595
20	955645	29.1	1.1100002924102
20	964472	29.2	1.1100002597517
20	973299	29.3	1.1100002329742
20	982423	29.4	1.1100002111788
20	991547	29.5	1.1100001948396
20	1000671	29.6	1.1100001680478
20	1009795	29.7	1.1100001519426
20	1018919	29.8	1.1100001416832
20	1028043	29.9	1.1100001272275
20	1037167	30	1.1100001170673
20	1046291	30.1	1.1100001046371
20	1055736	30.2	1.1100000934109
20	1065181	30.3	1.110000083748
20	1074626	30.4	1.1100000755825
20	1084071	30.5	1.1100000695578
20	1093504	30.6	1.110000063094
20	1102925	30.7	1.1100000550387
20	1112346	30.8	1.110000049362
20	1121767	30.9	1.1100000453653
20	1131497	31	1.1100000419565
20	1141227	31.1	1.1100000363069
20	1151278	31.2	1.1100000331439
20	1161329	31.3	1.1100000309639
20	1171380	31.4	1.1100000268561
20	1181431	31.5	1.1100000247354
20	1191482	31.6	1.1100000221987
20	1201533	31.7	1.110000020055
20	1211572	31.8	1.110000017672
20	1221599	31.9	1.1100000164803
20	1231626	32	1.1100000149519
20	1241653	32.1	1.110000013092
20	1251989	32.2	1.1100000121991
20	1262325	32.3	1.1100000107161
20	1272661	32.4	1.110000009577
20	1282997	32.5	1.1100000086513
20	1293654	32.6	1.1100000079425
20	1304311	32.7	1.1100000071074
20	1314968	32.8	1.1100000065531
20	1325625	32.9	1.1100000060405
20	1336282	33	1.110000005387
20	1346939	33.1	1.1100000048276
20	1357953	33.2	1.1100000042277
20	1368955	33.3	1.1100000038663
20	1379957	33.4	1.1100000035117
20	1390947	33.5	1.1100000032235
19	314	1.3	-0.35812047421619
19	375	1.4	-0.050235721162757
19	436	1.5	0.73988167752002
19	497	1.6	-0.59042395296174
19	558	1.7	0.20796946248318
19	619	1.8	0.39940579856658
19	680	1.9	0.30122539926335
19	741	2	0.08420390552093
19	802	2.1	0.16549951935435
19	929	2.2	0.78461518624039
19	1056	2.3	-0.44492848422799
19	1183	2.4	0.20003687280241
19	1310	2.5	0.73259079557957
19	1437	2.6	-0.42842288417638
19	1564	2.7	0.41931010759235
19	1691	2.8	0.26487410234811
19	1818	2.9	0.77899273574594
19	1945	3	-1.3357949193016
19	2072	3.1	0.61730118938378
19	2289	3.2	0.63235830370591
19	2506	3.3	0.30203937015315
19	2723	3.4	-1.2046664597176
19	2940	3.5	1.0601096607845
19	3157	3.6	-0.21435359939474
19	3374	3.7	0.97424683735724
19	3591	3.8	-0.53475674640705
19	3808	3.9	0.77089375945206
19	4025	4	0.0040880597397219
19	4242	4.1	0.0011206260309038
19	4573	4.2	-1.2866608054613
19	4904	4.3	1.6961737365149
19	5235	4.4	-0.40133824784629
19	5566	4.5	-0.059653347515471
19	5897	4.6	0.19083900216518
19	6228	4.7	0.17640336268894
19	6559	4.8	0.13893342392219
19	6890	4.9	-0.38106338297467
19	7221	5	-0.18299935642364
19	7552	5.1	-0.020342641429458
19	8021	5.2	1.0286899326539
19	8490	5.3	-1.2074770599477
19	8959	5.4	1.6429754464809
19	9428	5.5	-0.58126000061236
19	9897	5.6	0.5331029826975
19	10366	5.7	-0.47112074765277
19	10835	5.8	0.37012029963492
19	11304	5.9	0.43460095880672
19	11773	6	-0.810598128744
19	12242	6.1	-3.8365591603724
19	12873	6.2	-2.1127552631725
19	13504	6.3	-4.2999005694575
19	14135	6.4	-3.6845581586088
19	14766	6.5	-2.2757531074961
19	15397	6.6	-4.4378789395251
19	16028	6.7	-2.7965830725531
19	16659	6.8	-4.2788137677923
19	17290	6.9	-1.3948570739866
19	17921	7	-4.3804006331818
19	18552	7.1	-2.6550060197928
19	19369	7.2	-3.2028338133041
19	20186	7.3	-3.619474636022
19	21003	7.4	-3.8906600019703
19	21820	7.5	-1.9529785002092
19	22637	7.6	-3.435858322274
19	23454	7.7	-4.0192121258065
19	24271	7.8	-3.0144434479143
19	25088	7.9	-2.3570801144081
19	25905	8	-4.3579035572773
19	26722	8.1	-2.0705952489735
19	27749	8.2	-3.5409756873442
19	28776	8.3	-2.0696825935468
19	29803	8.4	-3.8126806257013
[...]
137	336400	19.8	20.025731564802
137	341084	19.9	19.869766113751
137	345768	20	19.851337636573
137	350452	20.1	19.882416944418
137	355385	20.2	19.781812743125
137	360318	20.3	19.673027023149
137	365251	20.4	19.572520225265
137	370184	20.5	19.577831628587
137	375117	20.6	19.518666533016
137	380050	20.7	19.42181916844
137	384983	20.8	19.402452680764
137	389916	20.9	19.326135718336
137	394849	21	19.320766986609
137	400019	21.1	19.158896366917
137	405450	21.2	19.102727746496
137	410881	21.3	18.652727746496
137	416312	21.4	18.444600951923
137	421743	21.5	18.092933348925
137	427174	21.6	17.860665226888
137	432605	21.7	17.514628905793
137	438036	21.8	17.129811531455
137	443467	21.9	16.931917546633
137	448898	22	16.722624168734
137	454329	22.1	16.35983074533
137	460033	22.2	16.031647417396
137	465737	22.3	15.752918312347
137	471441	22.4	15.423027958635
137	477145	22.5	15.238949334213
137	482849	22.6	14.94574959421
137	488802	22.7	14.664227398314
137	494755	22.8	14.34152912681
137	500708	22.9	14.05945238971
137	506661	23	13.778034802891
137	512614	23.1	13.560308151463
137	518852	23.2	13.226309582648
137	525090	23.3	13.089251359797
137	531328	23.4	12.760354921159
137	537566	23.5	12.559983328249
137	543804	23.6	12.208418420953
137	550042	23.7	11.935430403859
137	556280	23.8	11.800826964411
137	562518	23.9	11.542039076443
137	568756	24	11.24215742512
137	574994	24.1	10.925511275817
137	581517	24.2	10.750842306438
137	588040	24.3	10.586568320987
137	594824	24.4	10.320090449205
137	601608	24.5	10.079052756804
137	608392	24.6	9.8391357749956
137	615176	24.7	9.5158198737969
137	621960	24.8	9.2480440592759
137	628744	24.9	9.1040850326411
137	635528	25	8.8965060141685
137	642312	25.1	8.6337753325538
137	649393	25.2	8.4769176695838
137	656474	25.3	8.2592333684531
137	663555	25.4	8.0450891543208
137	670636	25.5	7.8334599273875
137	677717	25.6	7.5313382850364
137	684798	25.7	7.402560326308
137	691879	25.8	7.1345470472732
137	698960	25.9	6.9712880235527
137	706041	26	6.7127293905104
137	713395	26.1	6.5942494081052
137	721046	26.2	6.380768117236
137	728697	26.3	6.2059388869591
137	736348	26.4	5.8990926645713
137	743999	26.5	5.8406435782304
137	751650	26.6	5.5596063626907
137	759289	26.7	5.3538801306833
137	766928	26.8	5.1854456933118
137	774567	26.9	5.0134858661134
137	782206	27	4.8281618680025
137	789845	27.1	4.6220428415504
137	797793	27.2	4.4536412067229
137	805741	27.3	4.3438001872385
137	813689	27.4	4.1834077772603
137	821637	27.5	3.9308009088473
137	829585	27.6	3.7882229459438
137	837521	27.7	3.6528783222665
137	845742	27.8	3.4576896167727
137	853963	27.9	3.2883656439778
137	862184	28	3.1405262756013
137	870405	28.1	3.0121070446844
137	878935	28.2	2.8654878245151
137	887465	28.3	2.6764831616763
137	895995	28.4	2.5913254598366
137	904525	28.5	2.4718582140066
137	913055	28.6	2.3427980990912
137	921585	28.7	2.1342209271593
137	930115	28.8	2.0453398068433
137	938633	28.9	1.9732479503101
137	947139	29	1.8153487473347
137	955645	29.1	1.7375907674581
137	964472	29.2	1.6279947776855
137	973299	29.3	1.4986295901468
137	982423	29.4	1.3721898426824
137	991547	29.5	1.3358667645213
137	1000671	29.6	1.2345219418782
137	1009795	29.7	1.0956095492776
137	1018919	29.8	1.069727741816
137	1028043	29.9	0.98752330465827
137	1037167	30	0.8919791549782
137	1046291	30.1	0.83999759508726
137	1055736	30.2	0.74585739498435
137	1065181	30.3	0.68686774621974
137	1074626	30.4	0.63992037766455
137	1084071	30.5	0.6043529666828
137	1093504	30.6	0.53653837424388
137	1102925	30.7	0.49471837107529
137	1112346	30.8	0.47562144922994
137	1121767	30.9	0.43481496055804
137	1131497	31	0.38638884630707
137	1141227	31.1	0.36334940792985
137	1151278	31.2	0.32432102707276
137	1161329	31.3	0.29994383486545
137	1171380	31.4	0.27253909921066
137	1181431	31.5	0.23699198326758
137	1191482	31.6	0.22530723844899
137	1201533	31.7	0.1977399198404
137	1211572	31.8	0.18075381593258
137	1221599	31.9	0.17253266885574
137	1231626	32	0.15321180975447
137	1241653	32.1	0.14271827553894
137	1251989	32.2	0.12559744289893
137	1262325	32.3	0.11311373759155
137	1272661	32.4	0.10422165783155
137	1282997	32.5	0.093697797323167
137	1293654	32.6	0.085431106203699
137	1304311	32.7	0.079893892632447
137	1314968	32.8	0.073098256942161
137	1325625	32.9	0.065262558075232
137	1336282	33	0.061514563921378
137	1346939	33.1	0.053829701572384
137	1357953	33.2	0.04926278806972
137	1368955	33.3	0.046356263319153
137	1379957	33.4	0.04230801607922
137	1390947	33.5	0.038254904348686
136	36992	9.1	809.57388489209
136	38253	9.2	809.57388489209
136	39514	9.3	813.13914840123
136	40775	9.4	813.44696586721
136	42036	9.5	813.74486392376
136	43297	9.6	814.0353479489
136	44558	9.7	814.32975213445
136	45819	9.8	814.61619708664
136	47080	9.9	814.88937133232
136	48341	10	815.15538876463
136	49602	10.1	815.41424938359
136	51121	10.2	815.67556275025
136	52640	10.3	815.92971930355
136	54159	10.4	816.17671904349
136	55678	10.5	816.427253332
136	57197	10.6	816.67063080716
136	58716	10.7	816.9178402885
136	60235	10.8	817.16857202389
136	61754	10.9	817.42268667096
136	63273	11	817.67472801273
136	64792	11.1	817.922900799
136	66593	11.2	818.16906053601
136	68394	11.3	818.41277329787
136	70195	11.4	818.65366883372
136	71996	11.5	818.89214703832
136	73797	11.6	819.12806709951
136	75598	11.7	819.36214276451
136	77399	11.8	819.59305923843
136	79200	11.9	819.82020821871
136	81001	12	820.05025318746
136	82802	12.1	820.28008380179
136	84909	12.2	820.51277250492
136	87016	12.3	820.74698927561
136	89123	12.4	820.98285350225
136	91230	12.5	821.22205033652
136	93337	12.6	821.4614044737
136	95444	12.7	821.70227728864
136	97551	12.8	821.94584996339
136	99658	12.9	822.18781015703
136	101765	13	822.42768787387
136	103872	13.1	822.66144737881
136	106309	13.2	822.89124199809
136	108746	13.3	823.12351539081
136	111183	13.4	823.35852048024
136	113620	13.5	823.5950661438
136	116057	13.6	823.83364874798
136	118494	13.7	824.07595856121
136	120931	13.8	824.31898897596
136	123368	13.9	824.56443426677
136	125805	14	824.81268054256
136	128242	14.1	825.06511342358
136	131033	14.2	825.31712525037
136	133824	14.3	825.56527787316
136	136615	14.4	825.80837341779
136	139406	14.5	826.04633207999
136	142197	14.6	826.28639152991
136	144988	14.7	826.52898154811
136	147779	14.8	826.77497296579
136	150570	14.9	827.02389329537
136	153361	15	827.27486625937
136	156152	15.1	827.52763921861
136	159321	15.2	827.78323627558
136	162490	15.3	828.04292258446
136	165659	15.4	828.30515636224
136	168828	15.5	828.56240145471
136	171997	15.6	828.81449645815
136	175166	15.7	829.06068316938
136	178335	15.8	829.30216673674
136	181504	15.9	829.53736040425
136	184673	16	829.76618805493
136	187842	16.1	829.98955159971
136	191212	16.2	830.20804586045
136	194582	16.3	830.42909769395
136	198153	16.4	830.65319255154
136	201724	16.5	830.87939512552
136	205295	16.6	831.10956028608
136	208866	16.7	831.34205362233
136	212437	16.8	831.57745386029
136	216008	16.9	831.8161047715
136	219579	17	832.05841366048
136	223150	17.1	832.30350488486
136	226934	17.2	832.55161074762
136	230718	17.3	832.80344099037
136	234502	17.4	833.05740340383
136	238286	17.5	833.31549992809
136	242070	17.6	833.57699287936
136	245854	17.7	833.84104018583
136	249851	17.8	834.10787892598
136	253848	17.9	834.3786627315
136	257845	18	834.65171024276
136	261842	18.1	834.92805142551
136	266064	18.2	835.20753495192
136	270286	18.3	835.48934695207
136	274508	18.4	835.77226046956
136	278730	18.5	836.0568094894
136	282952	18.6	836.34519528501
136	287174	18.7	836.64259796403
136	291396	18.8	836.94206400715
136	295618	18.9	837.23955542185
136	299840	19	837.54301246956
136	304062	19.1	837.85098944569
136	308521	19.2	838.16244164579
136	312980	19.3	838.4773121095
136	317664	19.4	838.79531250378
136	322348	19.5	839.11739973558
136	327032	19.6	839.44291825401
136	331716	19.7	839.76659873844
136	336400	19.8	840.08748496108
136	341084	19.9	840.40909406517
136	345768	20	840.72819839639
136	350452	20.1	841.04700677009
136	355385	20.2	841.36631427104
136	360318	20.3	841.68400608933
136	365251	20.4	841.99995083148
136	370184	20.5	842.31428145526
136	375117	20.6	842.63088576152
136	380050	20.7	842.94681289611
136	384983	20.8	843.26117246919
136	389916	20.9	843.57921675139
136	394849	21	843.89783877283
136	400019	21.1	844.2163722822
136	405450	21.2	844.53223709749
136	410881	21.3	844.84717588393
136	416312	21.4	845.15469570612
136	421743	21.5	845.45878422778
136	427174	21.6	845.75707495084
136	432605	21.7	846.05153636525
136	438036	21.8	846.34029282169
136	443467	21.9	846.62270495294
136	448898	22	846.90185448775
136	454329	22.1	847.17755348904
136	460033	22.2	847.44727126493
136	465737	22.3	847.71157841777
136	471441	22.4	847.97129027892
136	477145	22.5	848.22556337399
136	482849	22.6	848.47680164077
136	488802	22.7	848.72320604447
136	494755	22.8	848.96496910795
136	500708	22.9	849.20141197824
136	506661	23	849.43320436582
136	512614	23.1	849.66035713781
136	518852	23.2	849.88392034038
136	525090	23.3	850.10197704643
136	531328	23.4	850.31777413014
136	537566	23.5	850.52814883403
136	543804	23.6	850.73522009419
136	550042	23.7	850.93649524886
136	556280	23.8	851.13326976279
136	562518	23.9	851.32782512537
136	568756	24	851.51811395888
136	574994	24.1	851.70345876739
136	581517	24.2	851.88358316157
136	588040	24.3	852.06082786054
136	594824	24.4	852.23660336161
136	601608	24.5	852.415058433
136	608392	24.6	852.58934547904
136	615176	24.7	852.75948387907
136	621960	24.8	852.92403149842
136	628744	24.9	853.08394873664
136	635528	25	853.24137663443
136	642312	25.1	853.40448499153
136	649393	25.2	853.56483291416
136	656474	25.3	853.72226764998
136	663555	25.4	853.87565951647
136	670636	25.5	854.02507426072
136	677717	25.6	854.1705585915
136	684798	25.7	854.3104318685
136	691879	25.8	854.44791345966
136	698960	25.9	854.58041746328
136	706041	26	854.70988939294
136	713395	26.1	854.83455932834
136	721046	26.2	854.95702883364
136	728697	26.3	855.07553352863
136	736348	26.4	855.19079126585
136	743999	26.5	855.30035020359
136	751650	26.6	855.4088236151
136	759289	26.7	855.51207755635
136	766928	26.8	855.61151071552
136	774567	26.9	855.7078156821
136	782206	27	855.80092698194
136	789845	27.1	855.89059641343
136	797793	27.2	855.9764377678
136	805741	27.3	856.05915153879
136	813689	27.4	856.13982532396
136	821637	27.5	856.2175202744
136	829585	27.6	856.29052376774
136	837521	27.7	856.36087927925
136	845742	27.8	856.42872114773
136	853963	27.9	856.49293793886
136	862184	28	856.55401001678
136	870405	28.1	856.61233639717
136	878935	28.2	856.66827775407
136	887465	28.3	856.72149607425
136	895995	28.4	856.77120416815
136	904525	28.5	856.81933069893
136	913055	28.6	856.865238464
136	921585	28.7	856.90874930299
136	930115	28.8	856.94838641178
136	938633	28.9	856.9863728055
136	947139	29	857.02302029718
136	955645	29.1	857.05673525839
136	964472	29.2	857.08900608537
136	973299	29.3	857.11924147726
136	982423	29.4	857.1470742772
136	991547	29.5	857.17255881696
136	1000671	29.6	857.19736875842
136	1009795	29.7	857.22029650685
136	1018919	29.8	857.24064435104
136	1028043	29.9	857.26051151396
136	1037167	30	857.2788519623
136	1046291	30.1	857.29541794868
136	1055736	30.2	857.31101852481
136	1065181	30.3	857.32487071337
136	1074626	30.4	857.33762733628
136	1084071	30.5	857.34951204479
136	1093504	30.6	857.36073618939
136	1102925	30.7	857.37070087001
136	1112346	30.8	857.37988886252
136	1121767	30.9	857.38872218379
136	1131497	31	857.39679764012
136	1141227	31.1	857.40397371854
136	1151278	31.2	857.41072190465
136	1161329	31.3	857.41674524912
136	1171380	31.4	857.4223158563
136	1181431	31.5	857.42737749813
136	1191482	31.6	857.43177895297
136	1201533	31.7	857.43596339677
136	1211572	31.8	857.4396358557
136	1221599	31.9	857.44299284587
136	1231626	32	857.44619715151
136	1241653	32.1	857.44904262693
136	1251989	32.2	857.45169321466
136	1262325	32.3	857.45402583142
136	1272661	32.4	857.45612659872
136	1282997	32.5	857.45806222081
136	1293654	32.6	857.45980239201
136	1304311	32.7	857.46138903284
136	1314968	32.8	857.4628728356
136	1325625	32.9	857.46423042868
136	1336282	33	857.46544249585
136	1346939	33.1	857.46658495464
136	1357953	33.2	857.46758468888
136	1368955	33.3	857.46849960564
136	1379957	33.4	857.46936054193
136	1390947	33.5	857.4701462935
135	36992	9.1	2324.4681397739
135	38253	9.2	2324.4681397739
135	39514	9.3	2323.1383076697
135	40775	9.4	2321.3028743322
135	42036	9.5	2319.5099759828
135	43297	9.6	2317.7467379502
135	44558	9.7	2315.9597045439
135	45819	9.8	2314.2173789037
135	47080	9.9	2312.5216218172
135	48341	10	2310.8702913821
135	49602	10.1	2309.2633875984
135	51121	10.2	2307.6412581322
135	52640	10.3	2306.0635553175
135	54159	10.4	2304.530279154
135	55678	10.5	2302.9750619186
135	57197	10.6	2301.4642713345
135	58716	10.7	2299.9296931799
135	60235	10.8	2298.3732502728
135	61754	10.9	2296.7958075952
135	63273	11	2295.2312351725
135	64792	11.1	2293.6906772039
135	66593	11.2	2292.1626154446
135	68394	11.3	2290.649743534
135	70195	11.4	2289.1543598421
135	71996	11.5	2287.6739819814
135	73797	11.6	2286.2094840577
135	75598	11.7	2284.7564354121
135	77399	11.8	2283.3229977685
135	79200	11.9	2281.9129472271
135	81001	12	2280.484919541
135	82802	12.1	2279.0582224818
135	84909	12.2	2277.613783544
135	87016	12.3	2276.1598589704
135	89123	12.4	2274.6957076454
135	91230	12.5	2273.2108688175
135	93337	12.6	2271.7250535156
135	95444	12.7	2270.2298108661
135	97551	12.8	2268.7178085606
135	99658	12.9	2267.2158158965
135	101765	13	2265.7267504204
135	103872	13.1	2264.2756643707
135	106309	13.2	2262.8491907545
135	108746	13.3	2261.4073298986
135	111183	13.4	2259.9485117557
135	113620	13.5	2258.4801303412
135	116057	13.6	2256.9991044095
135	118494	13.7	2255.494941446
135	120931	13.8	2253.986305275
135	123368	13.9	2252.4626785136
135	125805	14	2250.9216643513
135	128242	14.1	2249.3678443351
135	131033	14.2	2247.8188993232
135	133824	14.3	2246.2936742092
135	136615	14.4	2244.7995315095
135	139406	14.5	2243.3369617265
135	142197	14.6	2241.8614798325
135	144988	14.7	2240.3704442593
135	147779	14.8	2238.8585026008
135	150570	14.9	2237.3285589162
135	153361	15	2235.7859990862
135	156152	15.1	2234.2323759117
135	159321	15.2	2232.6613949325
135	162490	15.3	2231.0652801076
135	165659	15.4	2229.453507727
135	168828	15.5	2227.8723973963
135	171997	15.6	2226.3229411542
135	175166	15.7	2224.8097991593
135	178335	15.8	2223.3255641857
135	181504	15.9	2221.8799889412
135	184673	16	2220.4735412654
135	187842	16.1	2219.1006777259
135	191212	16.2	2217.7577423582
135	194582	16.3	2216.3990873331
135	198153	16.4	2215.021728912
135	201724	16.5	2213.6314157942
135	205295	16.6	2212.2167473563
135	208866	16.7	2210.7877692085
135	212437	16.8	2209.3409243163
135	216008	16.9	2207.8740997502
135	219579	17	2206.3847920868
135	223150	17.1	2204.8783833032
135	226934	17.2	2203.3534455913
135	230718	17.3	2201.8056166529
135	234502	17.4	2200.2446827136
135	238286	17.5	2198.6583392118
135	242070	17.6	2197.051120187
135	245854	17.7	2195.4282012809
135	249851	17.8	2193.7881253338
135	253848	17.9	2192.1238017575
135	257845	18	2190.4455647241
135	261842	18.1	2188.7470837361
135	266064	18.2	2187.0292889022
135	270286	18.3	2185.2971825266
135	274508	18.4	2183.5459612943
135	278730	18.5	2181.7787621185
135	282952	18.6	2179.988436193
135	287174	18.7	2178.1815746336
135	291396	18.8	2176.3523716479
135	295618	18.9	2174.5044922835
135	299840	19	2172.6320534333
135	304062	19.1	2170.7441945667
135	308521	19.2	2168.8349946589
135	312980	19.3	2166.8999315466
135	317664	19.4	2164.9456331808
135	322348	19.5	2162.9662188088
135	327032	19.6	2160.965717174
135	331716	19.7	2158.976511333
135	336400	19.8	2157.0044778645
135	341084	19.9	2155.0280018668
135	345768	20	2153.066919163
135	350452	20.1	2151.1076552912
135	355385	20.2	2149.1453239907
135	360318	20.3	2147.1929220047
135	365251	20.4	2145.2512568232
135	370184	20.5	2143.319511343
135	375117	20.6	2141.3896560066
135	380050	20.7	2139.4659412762
135	384983	20.8	2137.5517715985
135	389916	20.9	2135.6384150298
135	394849	21	2133.7320832744
135	400019	21.1	2131.8262810912
135	405450	21.2	2129.9364458404
135	410881	21.3	2128.0521510674
135	416312	21.4	2126.2122443345
135	421743	21.5	2124.3928672474
135	427174	21.6	2122.608178684
135	432605	21.7	2120.8464010689
135	438036	21.8	2119.1187565075
135	443467	21.9	2117.4290703663
135	448898	22	2115.7589045055
135	454329	22.1	2114.1093833622
135	460033	22.2	2112.4956481946
135	465737	22.3	2110.9142850598
135	471441	22.4	2109.3604157888
135	477145	22.5	2107.8390869319
135	482849	22.6	2106.3359156069
135	488802	22.7	2104.8616655305
135	494755	22.8	2103.4151848287
135	500708	22.9	2102.0005351132
135	506661	23	2100.6137094723
135	512614	23.1	2099.2546428874
135	518852	23.2	2097.9170528787
135	525090	23.3	2096.6124085188
135	531328	23.4	2095.3212835943
135	537566	23.5	2094.0626010438
135	543804	23.6	2092.8236831652
135	550042	23.7	2091.6194436805
135	556280	23.8	2090.4421317582
135	562518	23.9	2089.2780971313
135	568756	24	2088.1395893647
135	574994	24.1	2087.030661951
135	581517	24.2	2085.9529685418
135	588040	24.3	2084.8925044954
135	594824	24.4	2083.8494149343
135	601608	24.5	2082.8392918887
135	608392	24.6	2081.8527614394
135	615176	24.7	2080.8897138921
135	621960	24.8	2079.9583122731
135	628744	24.9	2079.0531203587
135	635528	25	2078.1620190504
135	642312	25.1	2077.2884282969
135	649393	25.2	2076.4400135921
135	656474	25.3	2075.6070128102
135	663555	25.4	2074.7954031991
135	670636	25.5	2074.0048368851
135	677717	25.6	2073.2350667283
135	684798	25.7	2072.4949851415
135	691879	25.8	2071.767558171
135	698960	25.9	2071.066468046
135	706041	26	2070.3814208861
135	713395	26.1	2069.7217814925
135	721046	26.2	2069.0737847646
135	728697	26.3	2068.4467661905
135	736348	26.4	2067.8369275502
135	743999	26.5	2067.2572417501
135	751650	26.6	2066.683299563
135	759289	26.7	2066.1369740438
135	766928	26.8	2065.6108646124
135	774567	26.9	2065.1013067183
135	782206	27	2064.6086467905
135	789845	27.1	2064.1341980855
135	797793	27.2	2063.680004067
135	805741	27.3	2063.2423583623
135	813689	27.4	2062.8155063987
135	821637	27.5	2062.4044157069
135	829585	27.6	2062.0181479197
135	837521	27.7	2061.645890833
135	845742	27.8	2061.2869336487
135	853963	27.9	2060.9471570617
135	862184	28	2060.6240194238
135	870405	28.1	2060.3154095086
135	878935	28.2	2060.0194189586
135	887465	28.3	2059.7378362311
135	895995	28.4	2059.4748264139
135	904525	28.5	2059.2201847838
135	913055	28.6	2058.9772828346
135	921585	28.7	2058.7470632283
135	930115	28.8	2058.537339863
135	938633	28.9	2058.3363505737
135	947139	29	2058.1424455307
135	955645	29.1	2057.9640567596
135	964472	29.2	2057.7933090274
135	973299	29.3	2057.6333309581
135	982423	29.4	2057.4860652102
135	991547	29.5	2057.3512243097
135	1000671	29.6	2057.2199527671
135	1009795	29.7	2057.0986400703
135	1018919	29.8	2056.9909778696
135	1028043	29.9	2056.8858589951
135	1037167	30	2056.7888180992
135	1046291	30.1	2056.7011660348
135	1055736	30.2	2056.6186220393
135	1065181	30.3	2056.5453289135
135	1074626	30.4	2056.4778325202
135	1084071	30.5	2056.4149495012
135	1093504	30.6	2056.3555615829
135	1102925	30.7	2056.3028375973
135	1112346	30.8	2056.2542231355
135	1121767	30.9	2056.2074852699
135	1131497	31	2056.1647573331
135	1141227	31.1	2056.1267880825
135	1151278	31.2	2056.0910828471
135	1161329	31.3	2056.0592128114
135	1171380	31.4	2056.0297382478
135	1181431	31.5	2056.0029566638
135	1191482	31.6	2055.9796681862
135	1201533	31.7	2055.9575279327
135	1211572	31.8	2055.9380966354
135	1221599	31.9	2055.9203345105
135	1231626	32	2055.9033802526
135	1241653	32.1	2055.8883245965
135	1251989	32.2	2055.8743001079
135	1262325	32.3	2055.8619580312
135	1272661	32.4	2055.8508426901
135	1282997	32.5	2055.8406011464
135	1293654	32.6	2055.8313937503
135	1304311	32.7	2055.8229986967
135	1314968	32.8	2055.8151477682
135	1325625	32.9	2055.807964626
135	1336282	33	2055.8015514739
135	1346939	33.1	2055.7955066258
135	1357953	33.2	2055.7902169456
135	1368955	33.3	2055.785376042
135	1379957	33.4	2055.7808207538
135	1390947	33.5	2055.7766632744
