version 2
run General-2-20161208-16:16:02-5515
attr configname General
attr datetime 20161208-16:16:02
attr experiment General
attr inifile omnetpp.ini
attr iterationvars ""
attr iterationvars2 $repetition=2
attr measurement ""
attr network com.liborio.locvanet.LocScenario
attr processid 5515
attr repetition 2
attr replication #2
attr resultdir results
attr runnumber 2
attr seedset 2
param **.coreDebug false
param **.debug false
param *.**.nic.mac1609_4.bitrate 18Mbps
param *.**.nic.mac1609_4.txPower 20mW
param *.**.nic.mac1609_4.useServiceChannel false
param *.**.nic.phy80211p.analogueModels "xmldoc(\"config_trgi.xml\")"
param *.**.nic.phy80211p.decider "xmldoc(\"config_trgi.xml\")"
param *.**.nic.phy80211p.sensitivity -89dBm
param *.**.nic.phy80211p.thermalNoise -110dBm
param *.**.nic.phy80211p.usePropagationDelay true
param *.**.nic.phy80211p.useThermalNoise true
param *.annotations.draw false
param *.connectionManager.alpha 2.0
param *.connectionManager.carrierFrequency "5.890e9 Hz"
param *.connectionManager.pMax 20mW
param *.connectionManager.sat -89dBm
param *.connectionManager.sendDirect true
param *.manager.autoShutdown true
param *.manager.host "\"localhost\""
param *.manager.launchConfig "xmldoc(\"tunnel.launchd.xml\")"
param *.manager.margin 25
param *.manager.moduleDisplayString "\"\""
param *.manager.moduleName "\"node\""
param *.manager.moduleType "\"org.car2x.veins.nodes.Car\""
param *.manager.port 9999
param *.manager.updateInterval 0.1s
param *.node[*].appl.beaconInterval 0.1s
param *.node[*].appl.beaconPriority 3
param *.node[*].appl.dataOnSch false
param *.node[*].appl.dataPriority 2
param *.node[*].appl.debug false
param *.node[*].appl.headerLength "256 bit"
param *.node[*].appl.maxOffset 0.005s
param *.node[*].appl.sendBeacons true
param *.node[*].appl.sendData true
param *.node[*].applType "\"LocAppCom\""
param *.node[*].mobilityType "\"TraCIMobility\""
param *.node[*].mobilityType.debug true
param *.node[*].veinsmobility.x 0
param *.node[*].veinsmobility.y 0
param *.node[*].veinsmobility.z 1.895
param *.node[*].veinsmobilityType "\"org.car2x.veins.modules.mobility.traci.TraCIMobility\""
param *.node[*].veinsmobilityType.debug true
param *.playgroundSizeX 5000m
param *.playgroundSizeY 5000m
param *.playgroundSizeZ 50m
param *.world.use2D false
param *.world.useTorus false

vector 2  LocScenario.node[0].veinsmobility  posx  ETV
vector 3  LocScenario.node[0].veinsmobility  posy  ETV
vector 4  LocScenario.node[0].veinsmobility  speed  ETV
vector 5  LocScenario.node[0].veinsmobility  acceleration  ETV
vector 6  LocScenario.node[0].veinsmobility  co2emission  ETV
vector 9  LocScenario.node[1].veinsmobility  posx  ETV
vector 10  LocScenario.node[1].veinsmobility  posy  ETV
vector 11  LocScenario.node[1].veinsmobility  speed  ETV
vector 12  LocScenario.node[1].veinsmobility  acceleration  ETV
vector 13  LocScenario.node[1].veinsmobility  co2emission  ETV
vector 16  LocScenario.node[2].veinsmobility  posx  ETV
vector 17  LocScenario.node[2].veinsmobility  posy  ETV
vector 18  LocScenario.node[2].veinsmobility  speed  ETV
vector 19  LocScenario.node[2].veinsmobility  acceleration  ETV
vector 20  LocScenario.node[2].veinsmobility  co2emission  ETV
vector 23  LocScenario.node[3].veinsmobility  posx  ETV
vector 24  LocScenario.node[3].veinsmobility  posy  ETV
vector 25  LocScenario.node[3].veinsmobility  speed  ETV
vector 26  LocScenario.node[3].veinsmobility  acceleration  ETV
vector 27  LocScenario.node[3].veinsmobility  co2emission  ETV
vector 30  LocScenario.node[4].veinsmobility  posx  ETV
vector 31  LocScenario.node[4].veinsmobility  posy  ETV
vector 32  LocScenario.node[4].veinsmobility  speed  ETV
vector 33  LocScenario.node[4].veinsmobility  acceleration  ETV
vector 34  LocScenario.node[4].veinsmobility  co2emission  ETV
vector 37  LocScenario.node[5].veinsmobility  posx  ETV
vector 38  LocScenario.node[5].veinsmobility  posy  ETV
vector 39  LocScenario.node[5].veinsmobility  speed  ETV
vector 40  LocScenario.node[5].veinsmobility  acceleration  ETV
vector 41  LocScenario.node[5].veinsmobility  co2emission  ETV
vector 44  LocScenario.node[6].veinsmobility  posx  ETV
vector 45  LocScenario.node[6].veinsmobility  posy  ETV
vector 46  LocScenario.node[6].veinsmobility  speed  ETV
vector 47  LocScenario.node[6].veinsmobility  acceleration  ETV
vector 48  LocScenario.node[6].veinsmobility  co2emission  ETV
vector 51  LocScenario.node[7].veinsmobility  posx  ETV
vector 52  LocScenario.node[7].veinsmobility  posy  ETV
vector 53  LocScenario.node[7].veinsmobility  speed  ETV
vector 54  LocScenario.node[7].veinsmobility  acceleration  ETV
vector 55  LocScenario.node[7].veinsmobility  co2emission  ETV
vector 58  LocScenario.node[8].veinsmobility  posx  ETV
vector 59  LocScenario.node[8].veinsmobility  posy  ETV
vector 60  LocScenario.node[8].veinsmobility  speed  ETV
vector 61  LocScenario.node[8].veinsmobility  acceleration  ETV
vector 62  LocScenario.node[8].veinsmobility  co2emission  ETV
vector 65  LocScenario.node[9].veinsmobility  posx  ETV
vector 66  LocScenario.node[9].veinsmobility  posy  ETV
vector 67  LocScenario.node[9].veinsmobility  speed  ETV
vector 68  LocScenario.node[9].veinsmobility  acceleration  ETV
vector 69  LocScenario.node[9].veinsmobility  co2emission  ETV
6	22	0.3	3.8355478672714
6	32	0.4	0.973
6	42	0.5	5.2202250715434
6	52	0.6	0.973
6	62	0.7	6.0448705041807
6	72	0.8	2.5123245654529
6	82	0.9	3.2289833107829
6	92	1	3.4543203024088
6	102	1.1	2.7644900415265
6	133	1.2	0.973
6	164	1.3	6.4769020988025
6	195	1.4	0.973
6	226	1.5	1.8934765355775
6	257	1.6	1.6529344732119
6	288	1.7	3.6672908649161
6	319	1.8	3.9816739252685
6	350	1.9	2.2667025830421
6	381	2	1.9838289189585
6	412	2.1	5.7303336378328
6	476	2.2	1.3414611538874
6	540	2.3	4.8268570966711
6	604	2.4	0.76001647461763
6	668	2.5	4.1947162751255
6	732	2.6	4.036354571383
6	796	2.7	0.973
6	860	2.8	4.516938616495
6	924	2.9	0.973
6	988	3	5.4525578214636
6	1052	3.1	2.7143878058652
6	1161	3.2	2.0965379404804
6	1270	3.3	3.4296940870839
6	1379	3.4	1.6082023973359
6	1488	3.5	2.0607325009624
6	1597	3.6	4.0839186818726
6	1706	3.7	3.8221411586093
6	1815	3.8	2.2839166202772
6	1924	3.9	0.62786377218722
6	2033	4	1.7031893014307
6	2142	4.1	8.3228888223958
6	2308	4.2	0.78640845221286
6	2474	4.3	2.6652178871248
6	2640	4.4	0.973
6	2806	4.5	4.4751065630135
6	2972	4.6	5.4286193431243
6	3138	4.7	0.973
6	3304	4.8	4.8388290801866
6	3470	4.9	2.1162555404148
6	3636	5	1.0703344687297
6	3802	5.1	3.4673255790198
6	4037	5.2	5.1301464705264
6	4272	5.3	1.9354863414546
6	4507	5.4	0.78963181279205
6	4742	5.5	5.8729535809799
6	4977	5.6	0.90434427606381
6	5212	5.7	5.4568813925167
6	5447	5.8	0.973
6	5682	5.9	4.1475336307307
6	5917	6	2.6696771648943
6	6152	6.1	5.240509435882
6	6468	6.2	0.973
6	6784	6.3	4.6205063234712
6	7100	6.4	1.3774507667744
6	7416	6.5	3.6863687184554
6	7732	6.6	1.8576087142051
6	8048	6.7	6.3319951544559
6	8364	6.8	0.973
6	8680	6.9	4.2995098867199
6	8996	7	3.0994733740892
6	9312	7.1	0.973
6	9721	7.2	6.5007545044888
6	10130	7.3	4.5354622472617
6	10539	7.4	0.973
6	10948	7.5	5.1456563170684
6	11357	7.6	2.9263139980197
6	11766	7.7	3.2739665094873
6	12175	7.8	0.973
6	12584	7.9	6.7483012828296
6	12993	8	0.973
6	13402	8.1	2.5804133013991
6	13916	8.2	5.401451885006
6	14430	8.3	1.6490921844413
6	14944	8.4	2.989449352251
6	15458	8.5	3.6320760743435
6	15972	8.6	2.6138890239932
6	16486	8.7	0.973
6	17000	8.8	8.1451279648904
6	17514	8.9	0.973
6	18028	9	3.1223322206894
6	18542	9.1	2.0367475896746
6	19173	9.2	6.9321875732295
6	19804	9.3	1.8296449074983
6	20435	9.4	2.2870670937987
6	21066	9.5	0.82205074107777
6	21697	9.6	7.015479189866
6	22328	9.7	2.368545737373
6	22959	9.8	3.4429001338838
6	23590	9.9	0.973
6	24221	10	3.6924760994358
6	24852	10.1	0.973
6	25483	10.2	3.0853884802987
6	26114	10.3	6.5884583439187
6	26745	10.4	2.1305586042662
6	27376	10.5	5.6589025232164
6	28007	10.6	1.6836817527904
6	28638	10.7	2.4859210855839
6	29269	10.8	0.973
6	29900	10.9	2.6602321491695
6	30531	11	3.6785973470798
6	31162	11.1	5.261049636412
6	31793	11.2	0.77402534659514
6	32424	11.3	3.3402527312787
6	33055	11.4	4.7048604738636
6	33686	11.5	1.1318220471118
6	34317	11.6	0.973
6	34948	11.7	2.2514448785348
6	35579	11.8	6.6325122538321
6	36210	11.9	2.2219934056382
6	36841	12	0.973
6	37472	12.1	3.5028580042732
6	38103	12.2	1.2395378429578
6	38734	12.3	7.2181483458099
6	39365	12.4	2.8349137050989
6	39996	12.5	3.9260527726895
6	40627	12.6	0.973
6	41258	12.7	2.5864778655195
6	41889	12.8	3.7554194043634
6	42520	12.9	2.8117331544868
6	43151	13	0.973
6	43782	13.1	8.2483621668786
6	44413	13.2	0.973
6	45044	13.3	5.3944843497693
6	45675	13.4	1.892189360617
6	46306	13.5	4.9746196382189
6	46937	13.6	0.973
6	47568	13.7	6.6149130969963
6	48199	13.8	0.973
6	48830	13.9	7.9579111122914
6	49461	14	0.973
6	50092	14.1	2.3779076765372
6	50723	14.2	7.8460544977077
6	51354	14.3	0.973
6	51985	14.4	3.7177512330511
6	52616	14.5	3.3534162331422
6	53247	14.6	0.973
6	53878	14.7	7.0723425897295
6	54509	14.8	0.973
6	55140	14.9	6.0539738934433
6	55771	15	0.973
6	56402	15.1	5.6766204026515
6	57033	15.2	1.4234653086009
6	57664	15.3	4.2147620540738
6	58295	15.4	0.973
6	58926	15.5	5.0275609078305
6	59557	15.6	4.4871478979689
6	60188	15.7	0.973
6	60819	15.8	6.9884082036144
6	61450	15.9	2.4738548721783
6	62081	16	2.8971493452498
6	62712	16.1	0.77655703582935
6	63343	16.2	5.3776634109676
6	63974	16.3	1.4815751828551
6	64605	16.4	0.973
6	65236	16.5	5.3814233629919
6	65867	16.6	4.3987610133297
6	66498	16.7	0.973
6	67129	16.8	4.4841753374998
6	67760	16.9	4.3795371633234
6	68391	17	3.4842174617355
6	69022	17.1	0.973
6	69653	17.2	3.7650176401461
6	70284	17.3	2.996571916787
6	70915	17.4	0.58122410830849
6	71546	17.5	3.2558078259868
6	72177	17.6	3.9418653299793
6	72808	17.7	4.4592005282682
6	73439	17.8	0.80077916617117
6	74070	17.9	4.3951282196106
6	74701	18	1.7486012713109
6	75332	18.1	0.973
6	75963	18.2	4.7646712057939
6	76594	18.3	4.9808306651178
6	77225	18.4	3.5288671967883
6	77856	18.5	3.240385980434
6	78487	18.6	2.5161927888529
6	79118	18.7	2.414282830498
6	79749	18.8	2.8871828709602
6	80380	18.9	3.198258764363
6	81011	19	0.973
6	81642	19.1	0.8452226674924
6	82273	19.2	4.5733493049652
6	82904	19.3	4.7670764816656
6	83535	19.4	0.973
6	84166	19.5	5.9793782540341
6	84797	19.6	0.973
5	22	0.3	0.20690260962581
5	32	0.4	-1.1772990263766
5	42	0.5	0.49644190394321
5	52	0.6	-0.51748857537753
5	62	0.7	0.66613068294245
5	72	0.8	-0.064254713919922
5	82	0.9	0.08369568304623
5	92	1	0.12978077486625
5	102	1.1	-0.012737899250368
5	133	1.2	-0.47908622969409
5	164	1.3	0.75258578909562
5	195	1.4	-0.47479298226534
5	226	1.5	-0.1918303605402
5	257	1.6	-0.24113568887113
5	288	1.7	0.17576094514226
5	319	1.8	0.23980427563654
5	350	1.9	-0.11470655472948
5	381	2	-0.1728444275679
5	412	2.1	0.59963299429509
5	476	2.2	-0.3064603866078
5	540	2.3	0.41242788161618
5	604	2.4	-0.42673990458717
5	668	2.5	0.28259044962468
5	732	2.6	0.24873926788569
5	796	2.7	-0.51708650032523
5	860	2.8	0.34876109422186
5	924	2.9	-0.70392292535399
5	988	3	0.54296435844154
5	1052	3.1	-0.02293860868086
5	1161	3.2	-0.15027800158133
5	1270	3.3	0.12503033559771
5	1379	3.4	-0.2510449920781
5	1488	3.5	-0.15697260883172
5	1597	3.6	0.26096717340408
5	1706	3.7	0.20591311987953
5	1815	3.8	-0.11171200023963
5	1924	3.9	-0.453717190912
5	2033	4	-0.23033794467338
5	2142	4.1	1.1331414920744
5	2308	4.2	-0.42143416556065
5	2474	4.3	-0.032841538358461
5	2640	4.4	-0.70075530821924
5	2806	4.5	0.3432498065289
5	2972	4.6	0.53757440056653
5	3138	4.7	-0.60957879645283
5	3304	4.8	0.41674760535823
5	3470	4.9	-0.14596260646357
5	3636	5	-0.36189797029365
5	3802	5.1	0.1345739168115
5	4037	5.2	0.47641242442186
5	4272	5.3	-0.18353336350991
5	4507	5.4	-0.42010941521731
5	4742	5.5	0.62979332050308
5	4977	5.6	-0.39663340665864
5	5212	5.7	0.54291674024423
5	5447	5.8	-0.72382216628174
5	5682	5.9	0.27458432065323
5	5917	6	-0.031234365329134
5	6152	6.1	0.4981256477069
5	6468	6.2	-0.88314114375972
5	6784	6.3	0.37271464620719
5	7100	6.4	-0.29820489818231
5	7416	6.5	0.17980290292762
5	7732	6.6	-0.19859883892348
5	8048	6.7	0.72425165080929
5	8364	6.8	-0.63650550225283
5	8680	6.9	0.30588363532441
5	8996	7	0.05731073874049
5	9312	7.1	-0.47415453544819
5	9721	7.2	0.7590396339074
5	10130	7.3	0.35120668252929
5	10539	7.4	-1.0443616434466
5	10948	7.5	0.48027024934999
5	11357	7.6	0.021165048913119
5	11766	7.7	0.092714092950317
5	12175	7.8	-0.50927964122966
5	12584	7.9	0.80871595267674
5	12993	8	-0.93128131816631
5	13402	8.1	-0.04857501788063
5	13916	8.2	0.53337495937011
5	14430	8.3	-0.24235746208578
5	14944	8.4	0.035131561639723
5	15458	8.5	0.16751368597614
5	15972	8.6	-0.043024518317516
5	16486	8.7	-0.52251324681567
5	17000	8.8	1.0966381500009
5	17514	8.9	-0.91985851044299
5	18028	9	0.063220633380112
5	18542	9.1	-0.1613583110273
5	19173	9.2	0.84761535404251
5	19804	9.3	-0.20577712280211
5	20435	9.4	-0.11090071627404
5	21066	9.5	-0.41344577302226
5	21697	9.6	0.86380113500638
5	22328	9.7	-0.095053021120854
5	22959	9.8	0.12630056876223
5	23590	9.9	-0.71651077864225
5	24221	10	0.18005636096934
5	24852	10.1	-0.62471266842916
5	25483	10.2	0.056472144275936
5	26114	10.3	0.77778513254597
5	26745	10.4	-0.14330597070511
5	27376	10.5	0.58291106049438
5	28007	10.6	-0.23648064550944
5	28638	10.7	-0.070614170446071
5	29269	10.8	-0.5418613440823
5	29900	10.9	-0.032804840244332
5	30531	11	0.17741575422697
5	31162	11.1	0.50202703340908
5	31793	11.2	-0.42385455940384
5	32424	11.3	0.10667701044586
5	33055	11.4	0.38683219586964
5	33686	11.5	-0.35005189932416
5	34317	11.6	-0.60037339245902
5	34948	11.7	-0.11662521678954
5	35579	11.8	0.78669910882599
5	36210	11.9	-0.12451442326416
5	36841	12	-0.51190384605434
5	37472	12.1	0.14185666488483
5	38103	12.2	-0.3265273415251
5	38734	12.3	0.90706322521438
5	39365	12.4	0.0015371471410575
5	39996	12.5	0.22594916967211
5	40627	12.6	-0.52484325440602
5	41258	12.7	-0.048722561285821
5	41889	12.8	0.19236228615046
5	42520	12.9	-0.0027317133732296
5	43151	13	-0.74300569924525
5	43782	13.1	1.1179532709066
5	44413	13.2	-1.0954222318251
5	45044	13.3	0.5323683349183
5	45675	13.4	-0.19195491147695
5	46306	13.5	0.44408831512555
5	46937	13.6	-0.8269923986634
5	47568	13.7	0.78342227966058
5	48199	13.8	-0.66046741364989
5	48830	13.9	1.0576491623651
5	49461	14	-1.1010564208496
5	50092	14.1	-0.09022202785129
5	50723	14.2	1.0358851569705
5	51354	14.3	-0.52862561943474
5	51985	14.4	0.18493028634694
5	52616	14.5	0.10915376599876
5	53247	14.6	-0.61906918259336
5	53878	14.7	0.87595886208582
5	54509	14.8	-0.84612114899791
5	55140	14.9	0.66689791670068
5	55771	15	-0.50343294553461
5	56402	15.1	0.58839171698782
5	57033	15.2	-0.28956919000482
5	57664	15.3	0.28645588967482
5	58295	15.4	-0.59441025007981
5	58926	15.5	0.45512007351498
5	59557	15.6	0.34170469164383
5	60188	15.7	-1.1072272479068
5	60819	15.8	0.85971056350971
5	61450	15.9	-0.072791556268932
5	62081	16	0.014644211670394
5	62712	16.1	-0.42309651440011
5	63343	16.2	0.52665799648967
5	63974	16.3	-0.27756679670418
5	64605	16.4	-0.69640116221272
5	65236	16.5	0.53007141174749
5	65867	16.6	0.32504552244209
5	66498	16.7	-0.511331193964
5	67129	16.8	0.34354021844919
5	67760	16.9	0.32032451303678
5	68391	17	0.13488558412064
5	69022	17.1	-0.65855614000466
5	69653	17.2	0.1948184933746
5	70284	17.3	0.035733827925313
5	70915	17.4	-0.46335583659822
5	71546	17.5	0.090747989155346
5	72177	17.6	0.23186934180558
5	72808	17.7	0.33725811932236
5	73439	17.8	-0.41813563636968
5	74070	17.9	0.32448034533299
5	74701	18	-0.22211271000561
5	75332	18.1	-0.5288150752196
5	75963	18.2	0.40271919823716
5	76594	18.3	0.44501998121849
5	77225	18.4	0.14443815613632
5	77856	18.5	0.084560595825316
5	78487	18.6	-0.064706371561627
5	79118	18.7	-0.08549917300698
5	79749	18.8	0.012130795535654
5	80380	18.9	0.076094734016792
5	81011	19	-0.57117685212287
5	81642	19.1	-0.40844021188096
5	82273	19.2	0.36312385601924
5	82904	19.3	0.40111122007946
5	83535	19.4	-0.81371562578717
5	84166	19.5	0.65270895275756
5	84797	19.6	-0.65442802652253
4	12	0.2	20.095939329409
4	22	0.3	20.116629590371
4	32	0.4	19.998899687734
4	42	0.5	20.048543878128
4	52	0.6	19.99679502059
4	62	0.7	20.063408088884
4	72	0.8	20.056982617492
4	82	0.9	20.065352185797
4	92	1	20.078330263284
4	102	1.1	20.077056473359
4	133	1.2	20.029147850389
4	164	1.3	20.104406429299
4	195	1.4	20.056927131072
4	226	1.5	20.037744095018
4	257	1.6	20.013630526131
4	288	1.7	20.031206620645
4	319	1.8	20.055187048209
4	350	1.9	20.043716392736
4	381	2	20.026431949979
4	412	2.1	20.086395249409
4	476	2.2	20.055749210748
4	540	2.3	20.09699199891
4	604	2.4	20.054318008451
4	668	2.5	20.082577053413
4	732	2.6	20.107450980202
4	796	2.7	20.055742330169
4	860	2.8	20.090618439591
4	924	2.9	20.020226147056
4	988	3	20.0745225829
4	1052	3.1	20.072228722032
4	1161	3.2	20.057200921874
4	1270	3.3	20.069703955434
4	1379	3.4	20.044599456226
4	1488	3.5	20.028902195343
4	1597	3.6	20.054998912683
4	1706	3.7	20.075590224671
4	1815	3.8	20.064419024647
4	1924	3.9	20.019047305556
4	2033	4	19.996013511089
4	2142	4.1	20.109327660296
4	2308	4.2	20.06718424374
4	2474	4.3	20.063900089904
4	2640	4.4	19.993824559082
4	2806	4.5	20.028149539735
4	2972	4.6	20.081906979792
4	3138	4.7	20.020949100147
4	3304	4.8	20.062623860682
4	3470	4.9	20.048027600036
4	3636	5	20.011837803007
4	3802	5.1	20.025295194688
4	4037	5.2	20.07293643713
4	4272	5.3	20.054583100779
4	4507	5.4	20.012572159257
4	4742	5.5	20.075551491308
4	4977	5.6	20.035888150642
4	5212	5.7	20.090179824666
4	5447	5.8	20.017797608038
4	5682	5.9	20.045256040103
4	5917	6	20.04213260357
4	6152	6.1	20.091945168341
4	6468	6.2	20.003631053965
4	6784	6.3	20.040902518586
4	7100	6.4	20.011082028768
4	7416	6.5	20.02906231906
4	7732	6.6	20.009202435168
4	8048	6.7	20.081627600249
4	8364	6.8	20.017977050024
4	8680	6.9	20.048565413556
4	8996	7	20.05429648743
4	9312	7.1	20.006881033885
4	9721	7.2	20.082784997276
4	10130	7.3	20.117905665529
4	10539	7.4	20.013469501184
4	10948	7.5	20.061496526119
4	11357	7.6	20.063613031011
4	11766	7.7	20.072884440306
4	12175	7.8	20.021956476183
4	12584	7.9	20.10282807145
4	12993	8	20.009699939634
4	13402	8.1	20.004842437846
4	13916	8.2	20.058179933783
4	14430	8.3	20.033944187574
4	14944	8.4	20.037457343738
4	15458	8.5	20.054208712336
4	15972	8.6	20.049906260504
4	16486	8.7	19.997654935822
4	17000	8.8	20.107318750822
4	17514	8.9	20.015332899778
4	18028	9	20.021654963116
4	18542	9.1	20.005519132013
4	19173	9.2	20.090280667418
4	19804	9.3	20.069702955137
4	20435	9.4	20.05861288351
4	21066	9.5	20.017268306208
4	21697	9.6	20.103648419708
4	22328	9.7	20.094143117596
4	22959	9.8	20.106773174473
4	23590	9.9	20.035122096608
4	24221	10	20.053127732705
4	24852	10.1	19.990656465862
4	25483	10.2	19.99630368029
4	26114	10.3	20.074082193545
4	26745	10.4	20.059751596474
4	27376	10.5	20.118042702524
4	28007	10.6	20.094394637973
4	28638	10.7	20.087333220928
4	29269	10.8	20.03314708652
4	29900	10.9	20.029866602495
4	30531	11	20.047608177918
4	31162	11.1	20.097810881259
4	31793	11.2	20.055425425319
4	32424	11.3	20.066093126363
4	33055	11.4	20.10477634595
4	33686	11.5	20.069771156018
4	34317	11.6	20.009733816772
4	34948	11.7	19.998071295093
4	35579	11.8	20.076741205975
4	36210	11.9	20.064289763649
4	36841	12	20.013099379044
4	37472	12.1	20.027285045532
4	38103	12.2	19.99463231138
4	38734	12.3	20.085338633901
4	39365	12.4	20.085492348615
4	39996	12.5	20.108087265582
4	40627	12.6	20.055602940142
4	41258	12.7	20.050730684013
4	41889	12.8	20.069966912628
4	42520	12.9	20.069693741291
4	43151	13	19.995393171366
4	43782	13.1	20.107188498457
4	44413	13.2	19.997646275274
4	45044	13.3	20.050883108766
4	45675	13.4	20.031687617619
4	46306	13.5	20.076096449131
4	46937	13.6	19.993397209265
4	47568	13.7	20.071739437231
4	48199	13.8	20.005692695866
4	48830	13.9	20.111457612102
4	49461	14	20.001351970017
4	50092	14.1	19.992329767232
4	50723	14.2	20.095918282929
4	51354	14.3	20.043055720986
4	51985	14.4	20.061548749621
4	52616	14.5	20.07246412622
4	53247	14.6	20.010557207961
4	53878	14.7	20.09815309417
4	54509	14.8	20.01354097927
4	55140	14.9	20.08023077094
4	55771	15	20.029887476387
4	56402	15.1	20.088726648085
4	57033	15.2	20.059769729085
4	57664	15.3	20.088415318052
4	58295	15.4	20.028974293044
4	58926	15.5	20.074486300396
4	59557	15.6	20.10865676956
4	60188	15.7	19.99793404477
4	60819	15.8	20.08390510112
4	61450	15.9	20.076625945494
4	62081	16	20.078090366661
4	62712	16.1	20.035780715221
4	63343	16.2	20.08844651487
4	63974	16.3	20.060689835199
4	64605	16.4	19.991049718978
4	65236	16.5	20.044056860153
4	65867	16.6	20.076561412397
4	66498	16.7	20.025428293
4	67129	16.8	20.059782314845
4	67760	16.9	20.091814766149
4	68391	17	20.105303324561
4	69022	17.1	20.039447710561
4	69653	17.2	20.058929559898
4	70284	17.3	20.062502942691
4	70915	17.4	20.016167359031
4	71546	17.5	20.025242157946
4	72177	17.6	20.048429092127
4	72808	17.7	20.082154904059
4	73439	17.8	20.040341340422
4	74070	17.9	20.072789374955
4	74701	18	20.050578103955
4	75332	18.1	19.997696596433
4	75963	18.2	20.037968516257
4	76594	18.3	20.082470514379
4	77225	18.4	20.096914329992
4	77856	18.5	20.105370389575
4	78487	18.6	20.098899752419
4	79118	18.7	20.090349835118
4	79749	18.8	20.091562914671
4	80380	18.9	20.099172388073
4	81011	19	20.042054702861
4	81642	19.1	20.001210681673
4	82273	19.2	20.037523067275
4	82904	19.3	20.077634189283
4	83535	19.4	19.996262626704
4	84166	19.5	20.06153352198
4	84797	19.6	19.996090719327
3	2	0.1	416.34012864494
3	12	0.2	416.34012864494
3	22	0.3	414.330585403
3	32	0.4	412.31897318715
3	42	0.5	410.3191336646
3	52	0.6	408.31432984823
3	62	0.7	406.31470078708
3	72	0.8	404.30841058713
3	82	0.9	402.30276291812
3	92	1	400.29627831338
3	102	1.1	398.28849593363
3	133	1.2	396.28084092966
3	164	1.3	394.27797666714
3	195	1.4	392.26758673657
3	226	1.5	390.26194461605
3	257	1.6	388.25822075076
3	288	1.7	386.25690818152
3	319	1.8	384.25383804717
3	350	1.9	382.24836993055
3	381	2	380.24404885055
3	412	2.1	378.24145617122
3	476	2.2	376.2328673132
3	540	2.3	374.22734298175
3	604	2.4	372.21769447551
3	668	2.5	370.21231326067
3	732	2.6	368.20410621263
3	796	2.7	366.19341183464
3	860	2.8	364.18788819123
3	924	2.9	362.17887702485
3	988	3	360.17690491016
3	1052	3.1	358.16950328884
3	1161	3.2	356.16233104783
3	1270	3.3	354.15666154892
3	1379	3.4	352.1497417782
3	1488	3.5	350.14533239407
3	1597	3.6	348.14249269644
3	1706	3.7	346.1370433929
3	1815	3.8	344.1295350101
3	1924	3.9	342.12314371913
3	2033	4	340.12128948561
3	2142	4.1	338.12173857344
3	2308	4.2	336.11085653218
3	2474	4.3	334.10418872627
3	2640	4.4	332.09784932746
3	2806	4.5	330.09851730498
3	2972	4.6	328.095752871
3	3138	4.7	326.08761282863
3	3304	4.8	324.08556842045
3	3470	4.9	322.07935664134
3	3636	5	320.07460445148
3	3802	5.1	318.07347115004
3	4037	5.2	316.07099214337
3	4272	5.3	314.06374913263
3	4507	5.4	312.05834140924
3	4742	5.5	310.05713467402
3	4977	5.6	308.04963016446
3	5212	5.7	306.04609188892
3	5447	5.8	304.03712458292
3	5682	5.9	302.03539531601
3	5917	6	300.03092027515
3	6152	6.1	298.02675757006
3	6468	6.2	296.01761373415
3	6784	6.3	294.01730108691
3	7100	6.4	292.01326138722
3	7416	6.5	290.0122036613
3	7732	6.6	288.0093479517
3	8048	6.7	286.00847818039
3	8364	6.8	284.00036607526
3	8680	6.9	281.9986188646
3	8996	7	279.99381289474
3	9312	7.1	277.98843383196
3	9721	7.2	275.98779619492
3	10130	7.3	273.97956835301
3	10539	7.4	271.96782853287
3	10948	7.5	269.96653206572
3	11357	7.6	267.96043301723
3	11766	7.7	265.95412232358
3	12175	7.8	263.94688451239
3	12584	7.9	261.94473936916
3	12993	8	259.93450727039
3	13402	8.1	257.93358774989
3	13916	8.2	255.93315396731
3	14430	8.3	253.92738656969
3	14944	8.4	251.92404268555
3	15458	8.5	249.92034749465
3	15972	8.6	247.91497720916
3	16486	8.7	245.91003715799
3	17000	8.8	243.91032210749
3	17514	8.9	241.89964095211
3	18028	9	239.8981581498
3	18542	9.1	237.89604315711
3	19173	9.2	235.89554170682
3	19804	9.3	233.88656431681
3	20435	9.4	231.87964464611
3	21066	9.5	229.87383395461
3	21697	9.6	227.87215761654
3	22328	9.7	225.86184348501
3	22959	9.8	223.85247985972
3	23590	9.9	221.8418532606
3	24221	10	219.83839158853
3	24852	10.1	217.83312939827
3	25483	10.2	215.83411417711
3	26114	10.3	213.83453424875
3	26745	10.4	211.82717666526
3	27376	10.5	209.82125210533
3	28007	10.6	207.80949858183
3	28638	10.7	205.80010980513
3	29269	10.8	203.79142715233
3	29900	10.9	201.78816297629
3	30531	11	199.78522684037
3	31162	11.1	197.78051659166
3	31793	11.2	195.77078619926
3	32424	11.3	193.76529424553
3	33055	11.4	191.75873554861
3	33686	11.5	189.7483086273
3	34317	11.6	187.74138213669
3	34948	11.7	185.74045922856
3	35579	11.8	183.74070254318
3	36210	11.9	181.73307906516
3	36841	12	179.72670069995
3	37472	12.1	177.72544124409
3	38103	12.2	175.72276325736
3	38734	12.3	173.72335046168
3	39365	12.4	171.71486726254
3	39996	12.5	169.70636869233
3	40627	12.6	167.69561068741
3	41258	12.7	165.69010098265
3	41889	12.8	163.68507849121
3	42520	12.9	161.67813242543
3	43151	13	159.6712136761
3	43782	13.1	157.67172479634
3	44413	13.2	155.66105666586
3	45044	13.3	153.66134248139
3	45675	13.4	151.65630474786
3	46306	13.5	149.65318651503
3	46937	13.6	147.64562751106
3	47568	13.7	145.64633822248
3	48199	13.8	143.63921490871
3	48830	13.9	141.63869610248
3	49461	14	139.62760107141
3	50092	14.1	137.62751632681
3	50723	14.2	135.62833377974
3	51354	14.3	133.61879264239
3	51985	14.4	131.61453762789
3	52616	14.5	129.60843335718
3	53247	14.6	127.60123757634
3	53878	14.7	125.60023233117
3	54509	14.8	123.59046771834
3	55140	14.9	121.58916410356
3	55771	15	119.58119167784
3	56402	15.1	117.57825345459
3	57033	15.2	115.56943146259
3	57664	15.3	113.56350508944
3	58295	15.4	111.55471422965
3	58926	15.5	109.55186732243
3	59557	15.6	107.54446932928
3	60188	15.7	105.5336543754
3	60819	15.8	103.53391141471
3	61450	15.9	101.52557156524
3	62081	16	99.517959612968
3	62712	16.1	97.510201222277
3	63343	16.2	95.506673690007
3	63974	16.3	93.497879710618
3	64605	16.4	91.491861329181
3	65236	16.5	89.492806783702
3	65867	16.6	87.488451657814
3	66498	16.7	85.480846158693
3	67129	16.8	83.478353842531
3	67760	16.9	81.47242621084
3	68391	17	79.463295414819
3	69022	17.1	77.452815796982
3	69653	17.2	75.448921574427
3	70284	17.3	73.44307921608
3	70915	17.4	71.436879528467
3	71546	17.5	69.435313282342
3	72177	17.6	67.432839579215
3	72808	17.7	65.428047241158
3	73439	17.8	63.41988240698
3	74070	17.9	61.415898823693
3	74701	18	59.408670518801
3	75332	18.1	57.403663284982
3	75963	18.2	55.403944068525
3	76594	18.3	53.400197761669
3	77225	18.4	51.392001367255
3	77856	18.5	49.382360627713
3	78487	18.6	47.371874303543
3	79118	18.7	45.362035026767
3	79749	18.8	43.353050720155
3	80380	18.9	41.343945108646
3	81011	19	39.334078568992
3	81642	19.1	37.329923653783
3	82273	19.2	35.329853037666
3	82904	19.3	33.326151274585
3	83535	19.4	31.318438500481
3	84166	19.5	29.318862677379
3	84797	19.6	27.312759929392
2	2	0.1	26.697598627787
2	12	0.2	26.697598627787
2	22	0.3	26.716354297124
2	32	0.4	26.735129276814
2	42	0.5	26.75379437843
2	52	0.6	26.772505813287
2	62	0.7	26.791168950604
2	72	0.8	26.809894258325
2	82	0.9	26.828613569112
2	92	1	26.847340691271
2	102	1.1	26.866079925953
2	133	1.2	26.884817971799
2	164	1.3	26.903511304219
2	195	1.4	26.922274875955
2	226	1.5	26.940994134956
2	257	1.6	26.959695490306
2	288	1.7	26.978374340308
2	319	1.8	26.997069594192
2	350	1.9	27.015787229163
2	381	2	27.034494158497
2	412	2.1	27.05318495615
2	476	2.2	27.071931717935
2	540	2.3	27.090649877576
2	604	2.4	27.109406529376
2	668	2.5	27.128123353267
2	732	2.6	27.146866551505
2	796	2.7	27.16563296474
2	860	2.8	27.184351117959
2	924	2.9	27.203101821275
2	988	3	27.221786827012
2	1052	3.1	27.240522507962
2	1161	3.2	27.259256048036
2	1270	3.3	27.277975562568
2	1379	3.4	27.296706746262
2	1488	3.5	27.315414499765
2	1597	3.6	27.334107602914
2	1706	3.7	27.352825062297
2	1815	3.8	27.371561739683
2	1924	3.9	27.390287990917
2	2033	4	27.408971896434
2	2142	4.1	27.427634304362
2	2308	4.2	27.446402469114
2	2474	4.3	27.465131301145
2	2640	4.4	27.483857068053
2	2806	4.5	27.502517433019
2	2972	4.6	27.521209833709
2	3138	4.7	27.539952406564
2	3304	4.8	27.558638087038
2	3470	4.9	27.577362662833
2	3636	5	27.596073615845
2	3802	5.1	27.614750792687
2	4037	5.2	27.633440529399
2	4272	5.3	27.652174729988
2	4507	5.4	27.670891801291
2	4742	5.5	27.689569663512
2	4977	5.6	27.708306304749
2	5212	5.7	27.727005927934
2	5447	5.8	27.745756221888
2	5682	5.9	27.764438961054
2	5917	6	27.783147327351
2	6152	6.1	27.801852778525
2	6468	6.2	27.820604720086
2	6784	6.3	27.839274237516
2	7100	6.4	27.857978540643
2	7416	6.5	27.876655012116
2	7732	6.6	27.895348264709
2	8048	6.7	27.914022981945
2	8364	6.8	27.932765294053
2	8680	6.9	27.951448200694
2	8996	7	27.97015965565
2	9312	7.1	27.988876459455
2	9721	7.2	28.007549010112
2	10130	7.3	28.026292402426
2	10539	7.4	28.045068573086
2	10948	7.5	28.063747272802
2	11357	7.6	28.082470796449
2	11766	7.7	28.101196295444
2	12175	7.8	28.119930447504
2	12584	7.9	28.138617068169
2	12993	8	28.157379166813
2	13402	8.1	28.176054348373
2	13916	8.2	28.194724996395
2	14430	8.3	28.213445424645
2	14944	8.4	28.232143233518
2	15458	8.5	28.250844321242
2	15972	8.6	28.269561043125
2	16486	8.7	28.288273749503
2	17000	8.8	28.306937689384
2	17514	8.9	28.325703979207
2	18028	9	28.344384418045
2	18542	9.1	28.363070757306
2	19173	9.2	28.381742036891
2	19804	9.3	28.400492424962
2	20435	9.4	28.419223607722
2	21066	9.5	28.437944440047
2	21697	9.6	28.456626685213
2	22328	9.7	28.475389549493
2	22959	9.8	28.494143542414
2	23590	9.9	28.512909323048
2	24221	10	28.53160823127
2	24852	10.1	28.550323944269
2	25483	10.2	28.568981352432
2	26114	10.3	28.587644031177
2	26745	10.4	28.606379301109
2	27376	10.5	28.625101196202
2	28007	10.6	28.643877494759
2	28638	10.7	28.662631722425
2	29269	10.8	28.681379359626
2	29900	10.9	28.700076424559
2	30531	11	28.718770427795
2	31162	11.1	28.737480989357
2	31793	11.2	28.756238405425
2	32424	11.3	28.774956262875
2	33055	11.4	28.793684076559
2	33686	11.5	28.81244799354
2	34317	11.6	28.831179239952
2	34948	11.7	28.84985445313
2	35579	11.8	28.868518781601
2	36210	11.9	28.887256533206
2	36841	12	28.9059826638
2	37472	12.1	28.924661018079
2	38103	12.2	28.943352611931
2	38734	12.3	28.962013730777
2	39365	12.4	28.980759506416
2	39996	12.5	28.999505425519
2	40627	12.6	29.018272432602
2	41258	12.7	29.036990455728
2	41889	12.8	29.055703931545
2	42520	12.9	29.074435360659
2	43151	13	29.093166534819
2	43782	13.1	29.111828363781
2	44413	13.2	29.130594532039
2	45044	13.3	29.149258463837
2	45675	13.4	29.167972081913
2	46306	13.5	29.186667784715
2	46937	13.6	29.205404934564
2	47568	13.7	29.224064900681
2	48199	13.8	29.242797984103
2	48830	13.9	29.261469425676
2	49461	14	29.280239578326
2	50092	14.1	29.298906968672
2	50723	14.2	29.317565938539
2	51354	14.3	29.336321588233
2	51985	14.4	29.355027900958
2	52616	14.5	29.373751473346
2	53247	14.6	29.392485233124
2	53878	14.7	29.411161214779
2	54509	14.8	29.429918950236
2	55140	14.9	29.448597716663
2	55771	15	29.467338725101
2	56402	15.1	29.486032747819
2	57033	15.2	29.504781685514
2	57664	15.3	29.523503597531
2	58295	15.4	29.542252244659
2	58926	15.5	29.560945415097
2	59557	15.6	29.579681062184
2	60188	15.7	29.59844860079
2	60819	15.8	29.617112801164
2	61450	15.9	29.635857238879
2	62081	16	29.65459488291
2	62712	16.1	29.673333893695
2	63343	16.2	29.692033416611
2	63974	16.3	29.710782092856
2	64605	16.4	29.729504863613
2	65236	16.5	29.748162638802
2	65867	16.6	29.766869885897
2	66498	16.7	29.785607469699
2	67129	16.8	29.804297330632
2	67760	16.9	29.823019254395
2	68391	17	29.841771074251
2	69022	17.1	29.860535483064
2	69653	17.2	29.87923842841
2	70284	17.3	29.897959556291
2	70915	17.4	29.916684019233
2	71546	17.5	29.935365236877
2	72177	17.6	29.95405492409
2	72808	17.7	29.972766251817
2	73439	17.8	29.991509056061
2	74070	17.9	30.010212835437
2	74701	18	30.028946898773
2	75332	18.1	30.047660232186
2	75963	18.2	30.066324210949
2	76594	18.3	30.085025775753
2	77225	18.4	30.103768874558
2	77856	18.5	30.122525453869
2	78487	18.6	30.141289925275
2	79118	18.7	30.160048357594
2	79749	18.8	30.17879881022
2	80380	18.9	30.197550395021
2	81011	19	30.216309081792
2	81642	19.1	30.23501446026
2	82273	19.2	30.253681718741
2	82904	19.3	30.272382867805
2	83535	19.4	30.291121452837
2	84166	19.5	30.309784093267
2	84797	19.6	30.328507651442
13	164	1.3	0.973
13	195	1.4	4.8375924907874
13	226	1.5	3.0340181113585
13	257	1.6	0.59564237482741
13	288	1.7	3.3998892981223
13	319	1.8	5.315194975312
13	350	1.9	0.973
13	381	2	4.9014410291931
13	412	2.1	0.973
13	476	2.2	4.3236843748696
13	540	2.3	0.932458821847
13	604	2.4	2.0419393680816
13	668	2.5	8.5298676943682
13	732	2.6	2.5099252382537
13	796	2.7	2.7612793518009
13	860	2.8	0.973
13	924	2.9	5.7209869190466
13	988	3	0.973
13	1052	3.1	3.5115537905106
13	1161	3.2	1.7360652909486
13	1270	3.3	3.6717649391208
13	1379	3.4	1.0078702751566
13	1488	3.5	6.8051517268519
13	1597	3.6	0.973
13	1706	3.7	3.2847721181275
13	1815	3.8	4.8458854292585
13	1924	3.9	3.6435612595949
13	2033	4	2.2008614214934
13	2142	4.1	2.7676350770652
13	2308	4.2	1.0685801629694
13	2474	4.3	7.8472131286756
13	2640	4.4	0.973
13	2806	4.5	3.3685055028677
13	2972	4.6	4.8290762731745
13	3138	4.7	2.55167813416
13	3304	4.8	0.973
13	3470	4.9	5.5156148521323
13	3636	5	2.3837012987209
13	3802	5.1	1.794437030378
13	4037	5.2	2.43603893669
13	4272	5.3	7.6971220861829
13	4507	5.4	0.973
13	4742	5.5	2.4829598059204
13	4977	5.6	4.3219323242543
13	5212	5.7	0.65851193351038
13	5447	5.8	2.9054281101562
13	5682	5.9	1.3241673934295
13	5917	6	2.8947808309498
13	6152	6.1	4.8667639763483
13	6468	6.2	1.2180697281608
13	6784	6.3	5.2036120451808
13	7100	6.4	0.85353994631812
13	7416	6.5	4.3532481105612
13	7732	6.6	0.973
13	8048	6.7	8.6695193329845
13	8364	6.8	0.973
13	8680	6.9	4.2695204349408
13	8996	7	2.8912325335147
13	9312	7.1	0.973
13	9721	7.2	2.2000095586486
13	10130	7.3	6.0520125470227
13	10539	7.4	2.0233291110313
13	10948	7.5	4.8085600551625
13	11357	7.6	0.973
13	11766	7.7	4.4589792467231
13	12175	7.8	4.0178309624057
13	12584	7.9	5.2453430005729
13	12993	8	0.973
13	13402	8.1	5.6296688583682
13	13916	8.2	0.973
13	14430	8.3	8.6402486898918
13	14944	8.4	2.7907222034067
13	15458	8.5	0.973
13	15972	8.6	3.6723413798637
13	16486	8.7	3.4635659797137
13	17000	8.8	3.4603807193671
13	17514	8.9	1.4584736815241
13	18028	9	5.7605520705319
13	18542	9.1	4.2081505521371
13	19173	9.2	0.973
13	19804	9.3	4.701134886965
13	20435	9.4	3.0368989975121
13	21066	9.5	0.86315200073479
13	21697	9.6	6.4356246309908
13	22328	9.7	1.7165436157692
13	22959	9.8	0.65205643328194
13	23590	9.9	2.3694820742875
13	24221	10	6.7720492805591
13	24852	10.1	0.973
13	25483	10.2	3.6912168380451
13	26114	10.3	3.1537235910704
13	26745	10.4	1.2336846759989
13	27376	10.5	6.807540533213
13	28007	10.6	4.2918477184131
13	28638	10.7	0.6738476697205
13	29269	10.8	0.973
13	29900	10.9	6.1282846117456
13	30531	11	4.9401360088437
13	31162	11.1	3.0473623507149
13	31793	11.2	1.6125280160155
13	32424	11.3	0.973
13	33055	11.4	6.6736426083732
13	33686	11.5	0.80458623483552
13	34317	11.6	3.5845157556171
13	34948	11.7	0.973
13	35579	11.8	7.2919268470315
13	36210	11.9	0.973
13	36841	12	3.2594261205668
13	37472	12.1	6.0441928141223
13	38103	12.2	1.9971782900468
13	38734	12.3	3.8648781981839
13	39365	12.4	1.955839920711
13	39996	12.5	2.8957778425161
13	40627	12.6	3.2650945454603
13	41258	12.7	0.99315165902833
13	41889	12.8	5.8395289022695
13	42520	12.9	0.973
13	43151	13	2.6336525820322
13	43782	13.1	6.4501617203494
13	44413	13.2	0.973
13	45044	13.3	2.9480027669275
13	45675	13.4	2.8023493110759
13	46306	13.5	4.9590272586947
13	46937	13.6	3.7568634976024
13	47568	13.7	0.973
13	48199	13.8	3.9107269669468
13	48830	13.9	0.973
13	49461	14	4.9511184777395
13	50092	14.1	0.62954890410294
13	50723	14.2	5.8889079320971
13	51354	14.3	1.5152121581169
13	51985	14.4	2.0847878064939
13	52616	14.5	5.2352934923497
13	53247	14.6	3.589180116846
13	53878	14.7	0.973
13	54509	14.8	6.3091642338628
13	55140	14.9	0.973
13	55771	15	5.3367670541158
13	56402	15.1	5.2409161793769
13	57033	15.2	0.973
13	57664	15.3	3.0239124552496
13	58295	15.4	3.3081980178465
13	58926	15.5	0.58433433127874
13	59557	15.6	6.7123999089597
13	60188	15.7	2.628079812895
13	60819	15.8	2.7525785548237
13	61450	15.9	1.1671421800587
13	62081	16	2.8173120954103
13	62712	16.1	4.1335694423903
13	63343	16.2	4.299690181843
13	63974	16.3	0.973
13	64605	16.4	6.7656755778107
13	65236	16.5	1.3130450519346
13	65867	16.6	4.4997118288036
13	66498	16.7	2.4056751500744
13	67129	16.8	0.973
13	67760	16.9	7.7251486359646
13	68391	17	0.973
13	69022	17.1	5.2887203866756
13	69653	17.2	0.973
13	70284	17.3	3.7016364472329
13	70915	17.4	4.8727047789816
13	71546	17.5	1.9817792327763
13	72177	17.6	2.8729463107384
13	72808	17.7	0.60284970285353
13	73439	17.8	2.4356879989587
13	74070	17.9	5.1850685242488
13	74701	18	0.973
13	75332	18.1	5.5096747935511
13	75963	18.2	3.6650215036219
13	76594	18.3	2.2864380492575
13	77225	18.4	0.973
13	77856	18.5	5.3339012427658
13	78487	18.6	5.3853530999395
13	79118	18.7	0.973
13	79749	18.8	1.9300821768788
13	80380	18.9	5.1762402678607
13	81011	19	4.1798647774134
13	81642	19.1	0.973
13	82273	19.2	3.290312716113
13	82904	19.3	2.3720244203307
13	83535	19.4	6.8977915705481
13	84166	19.5	1.252871341909
13	84797	19.6	0.973
13	85428	19.7	7.9600613496019
13	85942	19.8	3.5202399625501
13	86456	19.9	0.973
13	86970	20	0.973
13	87484	20.1	5.3952778225263
13	87998	20.2	0.973
13	88512	20.3	2.3917009641931
13	89026	20.4	8.3205330079416
13	89540	20.5	0.973
13	90054	20.6	3.1368884229657
12	164	1.3	-0.53900903458707
12	195	1.4	0.41550118098964
12	226	1.5	0.042675621085806
12	257	1.6	-0.4605985237751
12	288	1.7	0.11958926569203
12	319	1.8	0.51293079243042
12	350	1.9	-0.49269762814511
12	381	2	0.42787973147352
12	412	2.1	-0.78116387007757
12	476	2.2	0.31086618038827
12	540	2.3	-0.39046042724515
12	604	2.4	-0.15999219131189
12	668	2.5	1.1756496752146
12	732	2.6	-0.066178864776134
12	796	2.7	-0.014256643760042
12	860	2.8	-0.57018670616671
12	924	2.9	0.59646527939478
12	988	3	-0.61147110115272
12	1052	3.1	0.14237676055636
12	1161	3.2	-0.22440501367672
12	1270	3.3	0.17572101228868
12	1379	3.4	-0.37492095641792
12	1488	3.5	0.82074050426019
12	1597	3.6	-1.0429282228695
12	1706	3.7	0.097540330211636
12	1815	3.8	0.41908871100752
12	1924	3.9	0.16951592490077
12	2033	4	-0.12851398861969
12	2142	4.1	-0.011185172572716
12	2308	4.2	-0.36227942346596
12	2474	4.3	1.0343869495904
12	2640	4.4	-1.1194317944115
12	2806	4.5	0.11445901468395
12	2972	4.6	0.41500757404137
12	3138	4.7	-0.055958660040041
12	3304	4.8	-0.53113018732983
12	3470	4.9	0.55721655825618
12	3636	5	-0.090534677053817
12	3802	5.1	-0.21203593132086
12	4037	5.2	-0.078855247376488
12	4272	5.3	1.0034101977945
12	4507	5.4	-0.61297970497982
12	4742	5.5	-0.070075342524802
12	4977	5.6	0.30903519650458
12	5212	5.7	-0.44753001914362
12	5447	5.8	0.017771590244955
12	5682	5.9	-0.30915338904595
12	5917	6	0.01655627863947
12	6152	6.1	0.42324281621259
12	6468	6.2	-0.33133796232288
12	6784	6.3	0.49203066707125
12	7100	6.4	-0.40701313577593
12	7416	6.5	0.31662321595938
12	7732	6.6	-0.581076438399
12	8048	6.7	1.2037974026752
12	8364	6.8	-0.65599186366889
12	8680	6.9	0.29803206527141
12	8996	7	0.013215628219747
12	9312	7.1	-0.47823563155251
12	9721	7.2	-0.12797670224682
12	10130	7.3	0.66583532129879
12	10539	7.4	-0.16582917885387
12	10948	7.5	0.40772387192117
12	11357	7.6	-1.0825948477024
12	11766	7.7	0.33931544930674
12	12175	7.8	0.24685345748438
12	12584	7.9	0.49781953608619
12	12993	8	-0.95570633758324
12	13402	8.1	0.57942846200895
12	13916	8.2	-0.79926653697623
12	14430	8.3	1.1979405099992
12	14944	8.4	-0.0085844899061982
12	15458	8.5	-1.1503826601198
12	15972	8.6	0.17733656864149
12	16486	8.7	0.13353214063681
12	17000	8.8	0.13234759280458
12	17514	8.9	-0.28151658272836
12	18028	9	0.6064291348914
12	18542	9.1	0.284256526269
12	19173	9.2	-0.78756585705559
12	19804	9.3	0.38808645359239
12	20435	9.4	0.043792668287637
12	21066	9.5	-0.40508866044693
12	21697	9.6	0.74406728581526
12	22328	9.7	-0.22941484805195
12	22959	9.8	-0.448888715636
12	23590	9.9	-0.092962737777249
12	24221	10	0.81319420679936
12	24852	10.1	-0.96905241475906
12	25483	10.2	0.18077793093397
12	26114	10.3	0.069178076297973
12	26745	10.4	-0.32789580882525
12	27376	10.5	0.82218001778237
12	28007	10.6	0.30104190660641
12	28638	10.7	-0.44475840772503
12	29269	10.8	-0.69163247952236
12	29900	10.9	0.68288186953868
12	30531	11	0.43486652434801
12	31162	11.1	0.04425112502652
12	31793	11.2	-0.25115828453565
12	32424	11.3	-0.95225585978476
12	33055	11.4	0.79511255889663
12	33686	11.5	-0.41729697107805
12	34317	11.6	0.15776391502005
12	34948	11.7	-0.56045509993563
12	35579	11.8	0.92208284705411
12	36210	11.9	-0.69004491288215
12	36841	12	0.091383359232005
12	37472	12.1	0.66392130597958
12	38103	12.2	-0.17133216343353
12	38734	12.3	0.21372631285338
12	39365	12.4	-0.17995684407651
12	39996	12.5	0.014217185811169
12	40627	12.6	0.090185985038964
12	41258	12.7	-0.37849119221789
12	41889	12.8	0.62032522612714
12	42520	12.9	-0.6990533467615
12	43151	13	-0.03868137714452
12	43782	13.1	0.74622525079178
12	44413	13.2	-0.69638625674418
12	45044	13.3	0.026139611098941
12	45675	13.4	-0.0039914317429179
12	46306	13.5	0.43993814324494
12	46937	13.6	0.19086763071826
12	47568	13.7	-0.73402530592865
12	48199	13.8	0.22486228179186
12	48830	13.9	-0.61356178736315
12	49461	14	0.44100262101274
12	50092	14.1	-0.4531556898495
12	50723	14.2	0.63396923167165
12	51354	14.3	-0.27010597269982
12	51985	14.4	-0.15175684592688
12	52616	14.5	0.49834059730639
12	53247	14.6	0.15736397537403
12	53878	14.7	-0.9255918691866
12	54509	14.8	0.72069044546222
12	55140	14.9	-0.54847180997022
12	55771	15	0.51976956003347
12	56402	15.1	0.49706782980355
12	57033	15.2	-0.57502865493298
12	57664	15.3	0.041534630395503
12	58295	15.4	0.099963228125119
12	58926	15.5	-0.46276944526472
12	59557	15.6	0.80135181581134
12	60188	15.7	-0.041580766974931
12	60819	15.8	-0.015826058085082
12	61450	15.9	-0.34262848079671
12	62081	16	-0.0013264904497134
12	62712	16.1	0.26965677402913
12	63343	16.2	0.30251207130497
12	63974	16.3	-1.2487044224982
12	64605	16.4	0.81428754266817
12	65236	16.5	-0.31214505354871
12	65867	16.6	0.34577727306168
12	66498	16.7	-0.086707491194851
12	67129	16.8	-0.67357295358086
12	67760	16.9	1.0102310528047
12	68391	17	-0.53066697549074
12	69022	17.1	0.5075028194813
12	69653	17.2	-0.83493444910271
12	70284	17.3	0.18264616380911
12	70915	17.4	0.4228707191767
12	71546	17.5	-0.17412424811624
12	72177	17.6	0.010164090921165
12	72808	17.7	-0.45887769628319
12	73439	17.8	-0.078708234871705
12	74070	17.9	0.48864314153324
12	74701	18	-0.55446265754291
12	75332	18.1	0.5557872480713
12	75963	18.2	0.17345794355496
12	76594	18.3	-0.11117914721837
12	77225	18.4	-0.5011278575752
12	77856	18.5	0.51895272461699
12	78487	18.6	0.52646791960576
12	79118	18.7	-0.62459837258793
12	79749	18.8	-0.18424548320471
12	80380	18.9	0.48518904761877
12	81011	19	0.27805277975276
12	81642	19.1	-1.0697649274254
12	82273	19.2	0.098220853158288
12	82904	19.3	-0.091875177342473
12	83535	19.4	0.84041455138941
12	84166	19.5	-0.32484518743583
12	84797	19.6	-0.613751174137
12	85428	19.7	1.0587671972113
12	85942	19.8	0.14181945766321
12	86456	19.9	-0.55650634544435
12	86970	20	-0.64495181911624
12	87484	20.1	0.53253277330658
12	87998	20.2	-0.51040688389911
12	88512	20.3	-0.087324213469415
12	89026	20.4	1.1330946329981
12	89540	20.5	-0.84203900441061
12	90054	20.6	0.066049823886729
11	133	1.2	20.093395677314
11	164	1.3	20.039494773855
11	195	1.4	20.081044891954
11	226	1.5	20.085312454063
11	257	1.6	20.039252601685
11	288	1.7	20.051211528254
11	319	1.8	20.102504607497
11	350	1.9	20.053234844683
11	381	2	20.09602281783
11	412	2.1	20.017906430822
11	476	2.2	20.048993048861
11	540	2.3	20.009947006137
11	604	2.4	19.993947787005
11	668	2.5	20.111512754527
11	732	2.6	20.104894868049
11	796	2.7	20.103469203673
11	860	2.8	20.046450533057
11	924	2.9	20.106097060996
11	988	3	20.044949950881
11	1052	3.1	20.059187626936
11	1161	3.2	20.036747125569
11	1270	3.3	20.054319226798
11	1379	3.4	20.016827131156
11	1488	3.5	20.098901181582
11	1597	3.6	19.994608359295
11	1706	3.7	20.004362392316
11	1815	3.8	20.046271263417
11	1924	3.9	20.063222855907
11	2033	4	20.050371457045
11	2142	4.1	20.049252939788
11	2308	4.2	20.013024997441
11	2474	4.3	20.1164636924
11	2640	4.4	20.004520512959
11	2806	4.5	20.015966414427
11	2972	4.6	20.057467171832
11	3138	4.7	20.051871305828
11	3304	4.8	19.998758287095
11	3470	4.9	20.05447994292
11	3636	5	20.045426475215
11	3802	5.1	20.024222882083
11	4037	5.2	20.016337357345
11	4272	5.3	20.116678377124
11	4507	5.4	20.055380406627
11	4742	5.5	20.048372872374
11	4977	5.6	20.079276392024
11	5212	5.7	20.03452339011
11	5447	5.8	20.036300549135
11	5682	5.9	20.00538521023
11	5917	6	20.007040838094
11	6152	6.1	20.049365119715
11	6468	6.2	20.016231323483
11	6784	6.3	20.06543439019
11	7100	6.4	20.024733076612
11	7416	6.5	20.056395398208
11	7732	6.6	19.998287754369
11	8048	6.7	20.118667494636
11	8364	6.8	20.053068308269
11	8680	6.9	20.082871514796
11	8996	7	20.084193077618
11	9312	7.1	20.036369514463
11	9721	7.2	20.023571844238
11	10130	7.3	20.090155376368
11	10539	7.4	20.073572458483
11	10948	7.5	20.114344845675
11	11357	7.6	20.006085360905
11	11766	7.7	20.040016905835
11	12175	7.8	20.064702251584
11	12584	7.9	20.114484205192
11	12993	8	20.018913571434
11	13402	8.1	20.076856417635
11	13916	8.2	19.996929763937
11	14430	8.3	20.116723814937
11	14944	8.4	20.115865365947
11	15458	8.5	20.000827099935
11	15972	8.6	20.018560756799
11	16486	8.7	20.031913970863
11	17000	8.8	20.045148730143
11	17514	8.9	20.01699707187
11	18028	9	20.077639985359
11	18542	9.1	20.106065637986
11	19173	9.2	20.027309052281
11	19804	9.3	20.06611769764
11	20435	9.4	20.070496964469
11	21066	9.5	20.029988098424
11	21697	9.6	20.104394827005
11	22328	9.7	20.0814533422
11	22959	9.8	20.036564470637
11	23590	9.9	20.027268196859
11	24221	10	20.108587617539
11	24852	10.1	20.011682376063
11	25483	10.2	20.029760169156
11	26114	10.3	20.036677976786
11	26745	10.4	20.003888395904
11	27376	10.5	20.086106397682
11	28007	10.6	20.116210588343
11	28638	10.7	20.07173474757
11	29269	10.8	20.002571499618
11	29900	10.9	20.070859686572
11	30531	11	20.114346339006
11	31162	11.1	20.118771451509
11	31793	11.2	20.093655623056
11	32424	11.3	19.998430037077
11	33055	11.4	20.077941292967
11	33686	11.5	20.036211595859
11	34317	11.6	20.051987987361
11	34948	11.7	19.995942477367
11	35579	11.8	20.088150762073
11	36210	11.9	20.019146270785
11	36841	12	20.028284606708
11	37472	12.1	20.094676737306
11	38103	12.2	20.077543520962
11	38734	12.3	20.098916152248
11	39365	12.4	20.08092046784
11	39996	12.5	20.082342186421
11	40627	12.6	20.091360784925
11	41258	12.7	20.053511665703
11	41889	12.8	20.115544188316
11	42520	12.9	20.04563885364
11	43151	13	20.041770715925
11	43782	13.1	20.116393241005
11	44413	13.2	20.04675461533
11	45044	13.3	20.04936857644
11	45675	13.4	20.048969433266
11	46306	13.5	20.09296324759
11	46937	13.6	20.112050010662
11	47568	13.7	20.038647480069
11	48199	13.8	20.061133708248
11	48830	13.9	19.999777529512
11	49461	14	20.043877791613
11	50092	14.1	19.998562222628
11	50723	14.2	20.061959145796
11	51354	14.3	20.034948548526
11	51985	14.4	20.019772863933
11	52616	14.5	20.069606923664
11	53247	14.6	20.085343321201
11	53878	14.7	19.992784134282
11	54509	14.8	20.064853178828
11	55140	14.9	20.010005997831
11	55771	15	20.061982953835
11	56402	15.1	20.111689736815
11	57033	15.2	20.054186871322
11	57664	15.3	20.058340334361
11	58295	15.4	20.068336657174
11	58926	15.5	20.022059712647
11	59557	15.6	20.102194894229
11	60188	15.7	20.098036817531
11	60819	15.8	20.096454211723
11	61450	15.9	20.062191363643
11	62081	16	20.062058714598
11	62712	16.1	20.089024392001
11	63343	16.2	20.119275599131
11	63974	16.3	19.994405156882
11	64605	16.4	20.075833911148
11	65236	16.5	20.044619405793
11	65867	16.6	20.0791971331
11	66498	16.7	20.07052638398
11	67129	16.8	20.003169088622
11	67760	16.9	20.104192193903
11	68391	17	20.051125496353
11	69022	17.1	20.101875778302
11	69653	17.2	20.018382333391
11	70284	17.3	20.036646949772
11	70915	17.4	20.07893402169
11	71546	17.5	20.061521596878
11	72177	17.6	20.06253800597
11	72808	17.7	20.016650236342
11	73439	17.8	20.008779412855
11	74070	17.9	20.057643727008
11	74701	18	20.002197461254
11	75332	18.1	20.057776186061
11	75963	18.2	20.075121980417
11	76594	18.3	20.064004065695
11	77225	18.4	20.013891279937
11	77856	18.5	20.065786552399
11	78487	18.6	20.11843334436
11	79118	18.7	20.055973507101
11	79749	18.8	20.03754895878
11	80380	18.9	20.086067863542
11	81011	19	20.113873141517
11	81642	19.1	20.006896648775
11	82273	19.2	20.016718734091
11	82904	19.3	20.007531216356
11	83535	19.4	20.091572671495
11	84166	19.5	20.059088152752
11	84797	19.6	19.997713035338
11	85428	19.7	20.103589755059
11	85942	19.8	20.117771700826
11	86456	19.9	20.062121066281
11	86970	20	19.997625884369
11	87484	20.1	20.0508791617
11	87998	20.2	19.99983847331
11	88512	20.3	19.991106051963
11	89026	20.4	20.104415515263
11	89540	20.5	20.020211614822
11	90054	20.6	20.026816597211
10	102	1.1	416.30025728988
10	133	1.2	416.30025728988
10	164	1.3	414.29101909131
10	195	1.4	412.28717071117
10	226	1.5	410.27916752883
10	257	1.6	408.27073761181
10	288	1.7	406.26691344765
10	319	1.8	404.26189345118
10	350	1.9	402.25174440555
10	381	2	400.24652208763
10	412	2.1	398.23702118827
10	476	2.2	396.23533153351
10	540	2.3	394.23053337379
10	604	2.4	392.22963962135
10	668	2.5	390.2303457101
10	732	2.6	388.21929589521
10	796	2.7	386.20890783559
10	860	2.8	384.1986623352
10	924	2.9	382.19411841423
10	988	3	380.18361014137
10	1052	3.1	378.17921627104
10	1161	3.2	376.17339870493
10	1270	3.3	374.16982507576
10	1379	3.4	372.1644943251
10	1488	3.5	370.16291259487
10	1597	3.6	368.15312387365
10	1706	3.7	366.15376390851
10	1815	3.8	364.15342858928
10	1924	3.9	362.14890259437
10	2033	4	360.14268152572
10	2142	4.1	358.13774553213
10	2308	4.2	356.13292138462
10	2474	4.3	354.13171984857
10	2640	4.4	352.12017496487
10	2806	4.5	350.11982383438
10	2972	4.6	348.11832817147
10	3138	4.7	346.1126826422
10	3304	4.8	344.10759667129
10	3470	4.9	342.10782173431
10	3636	5	340.10247491286
10	3802	5.1	338.0980333925
10	4037	5.2	336.09571212449
10	4272	5.3	334.09417936917
10	4507	5.4	332.08261301808
10	4742	5.5	330.07717615479
10	4977	5.6	328.07244000958
10	5212	5.7	326.06461366832
10	5447	5.8	324.06126240146
10	5682	5.9	322.05773342768
10	5917	6	320.05729583181
10	6152	6.1	318.05669268152
10	6468	6.2	316.05185731658
10	6784	6.3	314.05033516411
10	7100	6.4	312.04389295319
10	7416	6.5	310.0415206683
10	7732	6.6	308.03598231098
10	8048	6.7	306.03625442489
10	8364	6.8	304.02448917209
10	8680	6.9	302.01928350698
10	8996	7	300.01109767157
10	9312	7.1	298.00277968655
10	9721	7.2	295.99924381657
10	10130	7.3	293.99698764906
10	10539	7.4	291.98807346424
10	10948	7.5	289.98081748755
10	11357	7.6	287.96948447783
10	11766	7.7	285.96897687043
10	12175	7.8	283.96507627972
10	12584	7.9	281.95870727897
10	12993	8	279.94736033401
10	13402	8.1	277.94556997027
10	13916	8.2	275.93798561423
10	14430	8.3	273.93839352034
10	14944	8.4	271.9268226257
10	15458	8.5	269.91533757163
10	15972	8.6	267.9153557638
10	16486	8.7	265.91360067975
10	17000	8.8	263.91051034166
10	17514	8.9	261.90609659441
10	18028	9	259.90449787096
10	18542	9.1	257.8968351621
10	19173	9.2	255.88633003139
10	19804	9.3	253.88370016192
10	20435	9.4	251.87718962371
10	21066	9.5	249.8702411809
10	21697	9.6	247.86734342034
10	22328	9.7	245.85700536229
10	22959	9.8	243.84896133699
10	23590	9.9	241.84540597238
10	24221	10	239.84278018825
10	24852	10.1	237.8320228723
10	25483	10.2	235.83095559163
10	26114	10.3	233.82808062284
10	26745	10.4	231.82451390819
10	27376	10.5	229.82422598621
10	28007	10.6	227.81571667883
10	28638	10.7	225.80419710426
10	29269	10.8	223.79712488939
10	29900	10.9	221.79696865039
10	30531	11	219.78998393721
10	31162	11.1	217.77865077816
10	31793	11.2	215.76687513019
10	32424	11.3	213.75761093836
10	33055	11.4	211.75786882473
10	33686	11.5	209.75017598663
10	34317	11.6	207.74665590772
10	34948	11.7	205.74155826925
10	35579	11.8	203.74206489904
10	36210	11.9	201.73335116553
10	36841	12	199.73153753304
10	37472	12.1	197.72881011305
10	38103	12.2	195.71944381495
10	38734	12.3	193.71179075204
10	39365	12.4	191.70200053383
10	39996	12.5	189.69400979328
10	40627	12.6	187.68587688803
10	41258	12.7	185.67684216844
10	41889	12.8	183.67159216982
10	42520	12.9	181.66013923189
10	43151	13	179.65567647476
10	43782	13.1	177.65160051189
10	44413	13.2	175.64006267298
10	45044	13.3	173.63548834531
10	45675	13.4	171.63065263472
10	46306	13.5	169.62585683643
10	46937	13.6	167.61666187865
10	47568	13.7	165.60555834086
10	48199	13.8	163.60179468581
10	48830	13.9	161.5957825214
10	49461	14	159.59590566531
10	50092	14.1	157.5916190055
10	50723	14.2	155.59186367398
10	51354	14.3	153.58576896997
10	51985	14.4	151.58237518942
10	52616	14.5	149.58049890077
10	53247	14.6	147.57363945756
10	53878	14.7	145.56520645398
10	54509	14.8	143.56602890214
10	55140	14.9	141.55964480943
10	55771	15	139.55874515811
10	56402	15.1	137.55264807342
10	57033	15.2	135.5415805612
10	57664	15.3	133.53626304542
10	58295	15.4	131.5305302043
10	58926	15.5	129.52379778133
10	59557	15.6	127.52169281934
10	60188	15.7	125.51157474347
10	60819	15.8	123.5018724543
10	61450	15.9	121.49232841772
10	62081	16	119.4862104931
10	62712	16.1	117.48010583271
10	63343	16.2	115.47130474062
10	63974	16.3	113.45947868043
10	64605	16.4	111.46013903451
10	65236	16.5	109.45265692396
10	65867	16.6	107.44829610648
10	66498	16.7	105.4404776907
10	67129	16.8	103.43352630609
10	67760	16.9	101.43331031121
10	68391	17	99.422992515453
10	69022	17.1	97.417981121733
10	69653	17.2	95.407894955848
10	70284	17.3	93.406157713238
10	70915	17.4	91.402594101133
10	71546	17.5	89.39480199517
10	72177	17.6	87.388751043845
10	72808	17.7	85.382598456738
10	73439	17.8	83.381034415095
10	74070	17.9	81.380257416092
10	74701	18	79.374594232191
10	75332	18.1	77.374475395143
10	75963	18.2	75.368798966004
10	76594	18.3	73.361388044938
10	77225	18.4	71.355088859254
10	77856	18.5	69.353800699333
10	78487	18.6	67.347323273972
10	79118	18.7	65.335581435012
10	79749	18.8	63.330085264675
10	80380	18.9	61.32643145622
10	81011	19	59.317926002062
10	81642	19.1	57.306640160381
10	82273	19.2	55.306051428288
10	82904	19.3	53.304480537215
10	83535	19.4	51.303828351566
10	84166	19.5	49.294772444384
10	84797	19.6	47.288964825194
10	85428	19.7	45.289294408115
10	85942	19.8	43.279036853201
10	86456	19.9	41.267361175257
10	86970	20	39.261250280016
10	87484	20.1	37.261588577594
10	87998	20.2	35.256601816096
10	88512	20.3	33.256718865943
10	89026	20.4	31.257709113869
10	89540	20.5	29.247368987101
10	90054	20.6	27.245448825576
9	102	1.1	23.397598627787
9	133	1.2	23.397598627787
9	164	1.3	23.416351923117
9	195	1.4	23.435054912388
9	226	1.5	23.45379668065
9	257	1.6	23.472542431856
9	288	1.7	23.491245195105
9	319	1.8	23.509959119698
9	350	1.9	23.528720916451
9	381	2	23.547436729418
9	412	2.1	23.566192476675
9	476	2.2	23.584875317406
9	540	2.3	23.603587171477
9	604	2.4	23.622262583626
9	668	2.5	23.640923063601
9	732	2.6	23.659693267715
9	796	2.7	23.678457295314
9	860	2.8	23.697219992331
9	924	2.9	23.715929473456
9	988	3	23.734694623069
9	1052	3.1	23.753402703691
9	1161	3.2	23.772124072428
9	1270	3.3	23.7908244973
9	1379	3.4	23.809541322328
9	1488	3.5	23.828223155741
9	1597	3.6	23.846981589394
9	1706	3.7	23.865642685885
9	1815	3.8	23.884312885878
9	1924	3.9	23.903022199689
9	2033	4	23.921747334531
9	2142	4.1	23.94046047508
9	2308	4.2	23.959172571709
9	2474	4.3	23.977850856567
9	2640	4.4	23.996625681424
9	2806	4.5	24.015296028991
9	2972	4.6	24.033977059093
9	3138	4.7	24.052696822118
9	3304	4.8	24.071411362485
9	3470	4.9	24.09007633213
9	3636	5	24.108793307155
9	3802	5.1	24.12750183252
9	4037	5.2	24.146190568436
9	4272	5.3	24.164871944741
9	4507	5.4	24.183646969964
9	4742	5.5	24.202364785397
9	4977	5.6	24.221076060654
9	5212	5.7	24.239816178364
9	5447	5.8	24.25851452781
9	5682	5.9	24.27721453589
9	5917	6	24.295885690486
9	6152	6.1	24.314558390289
9	6468	6.2	24.333270591617
9	6784	6.3	24.351951868959
9	7100	6.4	24.37067906784
9	7416	6.5	24.389368279924
9	7732	6.6	24.408087042655
9	8048	6.7	24.426751573149
9	8364	6.8	24.445528454829
9	8680	6.9	24.464244112366
9	8996	7	24.482987585428
9	9312	7.1	24.501732291912
9	9721	7.2	24.520432364358
9	10130	7.3	24.539120492655
9	10539	7.4	24.557870763792
9	10948	7.5	24.576605557984
9	11357	7.6	24.595378405308
9	11766	7.7	24.614050213358
9	12175	7.8	24.632753689938
9	12584	7.9	24.651480205509
9	12993	8	24.670253182897
9	13402	8.1	24.688936963599
9	13916	8.2	24.707674822732
9	14430	8.3	24.726338085805
9	14944	8.4	24.745113153436
9	15458	8.5	24.76388741987
9	15972	8.6	24.782554320352
9	16486	8.7	24.80123777177
9	17000	8.8	24.819933685828
9	17514	8.9	24.838641951972
9	18028	9	24.857323943992
9	18542	9.1	24.876062534434
9	19173	9.2	24.894827654719
9	19804	9.3	24.913519270977
9	20435	9.4	24.932247107594
9	21066	9.5	24.950979031408
9	21697	9.6	24.969673148037
9	22328	9.7	24.988436708944
9	22959	9.8	25.007178858416
9	23590	9.9	25.025879112815
9	24221	10	25.044570690943
9	24852	10.1	25.063338165008
9	25483	10.2	25.082015196789
9	26114	10.3	25.10070910069
9	26745	10.4	25.119409461025
9	27376	10.5	25.138079218634
9	28007	10.6	25.156825710833
9	28638	10.7	25.175600299466
9	29269	10.8	25.194333378511
9	29900	10.9	25.213001907052
9	30531	11	25.231734169397
9	31162	11.1	25.250507018114
9	31793	11.2	25.269283996817
9	32424	11.3	25.288037534756
9	33055	11.4	25.306702198044
9	33686	11.5	25.325441069697
9	34317	11.6	25.344140994757
9	34948	11.7	25.362855644023
9	35579	11.8	25.381517985656
9	36210	11.9	25.400266385872
9	36841	12	25.418950383754
9	37472	12.1	25.437642910503
9	38103	12.2	25.456397401455
9	38734	12.3	25.475135901865
9	39365	12.4	25.49389434949
9	39996	12.5	25.512636001627
9	40627	12.6	25.531378980663
9	41258	12.7	25.550130376814
9	41889	12.8	25.56884644814
9	42520	12.9	25.587620414818
9	43151	13	25.606329138397
9	43782	13.1	25.625034251819
9	44413	13.2	25.643809010923
9	45044	13.3	25.66251877585
9	45675	13.4	25.681230980403
9	46306	13.5	25.699942812434
9	46937	13.6	25.718695704175
9	47568	13.7	25.737466409714
9	48199	13.8	25.7561686082
9	48830	13.9	25.774891793226
9	49461	14	25.793557714137
9	50092	14.1	25.812264794106
9	50723	14.2	25.830929580764
9	51354	14.3	25.849653536177
9	51985	14.4	25.868352282426
9	52616	14.5	25.887036865111
9	53247	14.6	25.905767958244
9	53878	14.7	25.924513738258
9	54509	14.8	25.943173132188
9	55140	14.9	25.961899788621
9	55771	15	25.980575255827
9	56402	15.1	25.99929923346
9	57033	15.2	26.018069602754
9	57664	15.3	26.036786304253
9	58295	15.4	26.055506882206
9	58926	15.5	26.074236789791
9	59557	15.6	26.092923506807
9	60188	15.7	26.111685014503
9	60819	15.8	26.130442641439
9	61450	15.9	26.149198791318
9	62081	16	26.167922963462
9	62712	16.1	26.186647011803
9	63343	16.2	26.205396227384
9	63974	16.3	26.224173676612
9	64605	16.4	26.242834583453
9	65236	16.5	26.261571488273
9	65867	16.6	26.280279260396
9	66498	16.7	26.299019304133
9	67129	16.8	26.317751255404
9	67760	16.9	26.336420341679
9	68391	17	26.355183713468
9	69022	17.1	26.373897557766
9	69653	17.2	26.392658767629
9	70284	17.3	26.411342052523
9	70915	17.4	26.4300423839
9	71546	17.5	26.448782182074
9	72177	17.6	26.46750572912
9	72808	17.7	26.486230224787
9	73439	17.8	26.504911893104
9	74070	17.9	26.52358621553
9	74701	18	26.542306143335
9	75332	18.1	26.560974322784
9	75963	18.2	26.579694374214
9	76594	18.3	26.598430614585
9	77225	18.4	26.617156478535
9	77856	18.5	26.6358355719
9	78487	18.6	26.654563099456
9	79118	18.7	26.673339762601
9	79749	18.8	26.692058131579
9	80380	18.9	26.710759304808
9	81011	19	26.729505761042
9	81642	19.1	26.748278168121
9	82273	19.2	26.766950733352
9	82904	19.3	26.785632465598
9	83535	19.4	26.804305623075
9	84166	19.5	26.823057216981
9	84797	19.6	26.841778492878
9	85428	19.7	26.860442486983
9	85942	19.8	26.879205296512
9	86456	19.9	26.897981342141
9	86970	20	26.916705448675
9	87484	20.1	26.935369361442
9	87998	20.2	26.954082975835
9	88512	20.3	26.972748953625
9	89026	20.4	26.99140678139
9	89540	20.5	27.010170361606
9	90054	20.6	27.02885535378
20	540	2.3	4.8957301588781
20	604	2.4	1.4592148822221
20	668	2.5	1.9999504047013
20	732	2.6	4.3805681086454
20	796	2.7	0.973
20	860	2.8	5.1882751729924
20	924	2.9	2.838036524978
20	988	3	3.1599771564518
20	1052	3.1	2.6152599878015
20	1161	3.2	0.973
20	1270	3.3	3.9507825937107
20	1379	3.4	5.9392175610902
20	1488	3.5	0.973
20	1597	3.6	6.825709672956
20	1706	3.7	2.2097686697259
20	1815	3.8	0.973
20	1924	3.9	4.9683857873026
20	2033	4	0.74471241897752
20	2142	4.1	1.8742555100306
20	2308	4.2	7.4051492256553
20	2474	4.3	3.8010138154834
20	2640	4.4	0.973
20	2806	4.5	1.1740529356345
20	2972	4.6	4.9547774118028
20	3138	4.7	5.2288744434594
20	3304	4.8	0.973
20	3470	4.9	4.4492139565342
20	3636	5	0.973
20	3802	5.1	8.5907669031825
20	4037	5.2	0.973
20	4272	5.3	4.0520731080264
20	4507	5.4	3.056208899939
20	4742	5.5	4.3304169198336
20	4977	5.6	0.973
20	5212	5.7	4.8463958511788
20	5447	5.8	4.3801660258504
20	5682	5.9	3.0602368190277
20	5917	6	0.973
20	6152	6.1	2.062779882827
20	6468	6.2	2.8424896888276
20	6784	6.3	8.3394832126695
20	7100	6.4	0.973
20	7416	6.5	4.8018601049512
20	7732	6.6	2.8485618974107
20	8048	6.7	3.4523432523293
20	8364	6.8	2.5779392812729
20	8680	6.9	0.973
20	8996	7	6.8412508154339
20	9312	7.1	0.973
20	9721	7.2	7.9074232397107
20	10130	7.3	2.83651196761
20	10539	7.4	2.6106335788652
20	10948	7.5	1.9955779564095
20	11357	7.6	2.245596275034
20	11766	7.7	3.3535594828582
20	12175	7.8	0.82003614485539
20	12584	7.9	1.6747848443473
20	12993	8	1.2546428574576
20	13402	8.1	3.4352015336697
20	13916	8.2	8.1867525840461
20	14430	8.3	0.973
20	14944	8.4	4.5276632560646
20	15458	8.5	0.973
20	15972	8.6	3.367739327654
20	16486	8.7	6.176446190285
20	17000	8.8	0.973
20	17514	8.9	7.8285679614392
20	18028	9	3.0282904837228
20	18542	9.1	0.973
20	19173	9.2	5.0112273702442
20	19804	9.3	6.5962151804888
20	20435	9.4	0.973
20	21066	9.5	2.7846943156274
20	21697	9.6	5.0838912209001
20	22328	9.7	3.9892484444421
20	22959	9.8	1.8401347477716
20	23590	9.9	1.8469821256546
20	24221	10	0.83170030829805
20	24852	10.1	5.7752801489821
20	25483	10.2	3.368171338221
20	26114	10.3	4.2586349823388
20	26745	10.4	1.879844992982
20	27376	10.5	3.2896811703287
20	28007	10.6	0.973
20	28638	10.7	1.1711408282489
20	29269	10.8	2.3806614986363
20	29900	10.9	7.1537463952618
20	30531	11	2.1463112134529
20	31162	11.1	1.6921532287374
20	31793	11.2	1.0044482868782
20	32424	11.3	5.6759742099484
20	33055	11.4	0.973
20	33686	11.5	1.8857462231437
20	34317	11.6	8.9767632117346
20	34948	11.7	0.973
20	35579	11.8	5.471845624969
20	36210	11.9	0.973
20	36841	12	7.1713305851714
20	37472	12.1	0.71131774206652
20	38103	12.2	1.8916413798618
20	38734	12.3	4.032775411081
20	39365	12.4	1.9844918226209
20	39996	12.5	6.8148079744436
20	40627	12.6	0.973
20	41258	12.7	4.3914483287403
20	41889	12.8	3.6126619197747
20	42520	12.9	0.973
20	43151	13	5.0261447508727
20	43782	13.1	2.309897275672
20	44413	13.2	3.7854166475199
20	45044	13.3	0.973
20	45675	13.4	5.9937936751746
20	46306	13.5	2.3377162872173
20	46937	13.6	0.73296971549825
20	47568	13.7	2.8049873606798
20	48199	13.8	3.52423726604
20	48830	13.9	1.3767176803154
20	49461	14	1.8004481777619
20	50092	14.1	7.773896480364
20	50723	14.2	0.973
20	51354	14.3	0.973
20	51985	14.4	4.0678677728374
20	52616	14.5	5.9260340612963
20	53247	14.6	0.973
20	53878	14.7	8.4684725599764
20	54509	14.8	0.55754951444289
20	55140	14.9	0.973
20	55771	15	8.002333221244
20	56402	15.1	1.6026104214318
20	57033	15.2	3.0598663177535
20	57664	15.3	4.1878002390457
20	58295	15.4	0.973
20	58926	15.5	5.6834155103261
20	59557	15.6	2.1358031891207
20	60188	15.7	3.8278801445646
20	60819	15.8	0.90119334029003
20	61450	15.9	3.3579776764551
20	62081	16	4.5477345191422
20	62712	16.1	2.2781422359568
20	63343	16.2	0.973
20	63974	16.3	5.7626167034042
20	64605	16.4	0.91185315114847
20	65236	16.5	1.4788092349606
20	65867	16.6	4.9990432651371
20	66498	16.7	1.1106019464249
20	67129	16.8	6.168004354517
20	67760	16.9	4.3214775146449
20	68391	17	0.973
20	69022	17.1	7.7966436811187
20	69653	17.2	1.7719740122926
20	70284	17.3	2.39612687261
20	70915	17.4	0.973
20	71546	17.5	7.0882080650609
20	72177	17.6	1.5042270172881
20	72808	17.7	4.2503754969731
20	73439	17.8	0.973
20	74070	17.9	6.4986761464435
20	74701	18	2.8015423319617
20	75332	18.1	1.1746560601646
20	75963	18.2	4.0204216121502
20	76594	18.3	1.5756604239489
20	77225	18.4	3.8292423655697
20	77856	18.5	0.973
20	78487	18.6	3.6253582076398
20	79118	18.7	1.9919041891258
20	79749	18.8	7.4332638151347
20	80380	18.9	3.1245949759393
20	81011	19	0.973
20	81642	19.1	5.1906988407597
20	82273	19.2	0.973
20	82904	19.3	4.9003932318361
20	83535	19.4	4.2997634887942
20	84166	19.5	2.7222948907094
20	84797	19.6	0.86364083066269
20	85428	19.7	4.8665091691523
20	85942	19.8	3.6222897777925
20	86456	19.9	0.973
20	86970	20	2.6791507665358
20	87484	20.1	0.95912055285272
20	87998	20.2	2.8017769753105
20	88512	20.3	4.5079824616465
20	89026	20.4	4.449674621218
20	89540	20.5	0.973
20	90054	20.6	4.3678227272462
20	90568	20.7	3.2184724512118
20	90977	20.8	1.6883949218271
20	91386	20.9	5.6343753569634
20	91795	21	0.973
20	92204	21.1	8.3384041609608
20	92613	21.2	0.973
20	93022	21.3	1.8675980004672
20	93431	21.4	4.3592662845481
19	540	2.3	0.42596107001884
19	604	2.4	-0.28258475561163
19	668	2.5	-0.17043516265691
19	732	2.6	0.32031388201283
19	796	2.7	-0.53952375194058
19	860	2.8	0.48738318313845
19	924	2.9	0.0019876491511184
19	988	3	0.068227759376178
19	1052	3.1	-0.044095886289135
19	1161	3.2	-0.76875047085341
19	1270	3.3	0.23407806407196
19	1379	3.4	0.64160836285446
19	1488	3.5	-0.95263510399967
19	1597	3.6	0.82551444722341
19	1706	3.7	-0.12743582972327
19	1815	3.8	-0.64204114507881
19	1924	3.9	0.44373263150916
19	2033	4	-0.42946526652667
19	2142	4.1	-0.19485704479738
19	2308	4.2	0.94521994953976
19	2474	4.3	0.2000099220313
19	2640	4.4	-0.56662824612577
19	2806	4.5	-0.34053189686965
19	2972	4.6	0.44061853664463
19	3138	4.7	0.49444663058967
19	3304	4.8	-0.61327733490618
19	3470	4.9	0.33499181251972
19	3636	5	-0.86684259609317
19	3802	5.1	1.1875882336404
19	4037	5.2	-0.74056781625842
19	4272	5.3	0.25370990007652
19	4507	5.4	0.04764698273501
19	4742	5.5	0.30952439249962
19	4977	5.6	-0.81331060081723
19	5212	5.7	0.41814021319151
19	5447	5.8	0.32015919627156
19	5682	5.9	0.047479796316487
19	5917	6	-0.86402087633033
19	6152	6.1	-0.1558348813327
19	6468	6.2	0.0059061132604299
19	6784	6.3	1.136075514229
19	7100	6.4	-0.71661995707547
19	7416	6.5	0.40796358285007
19	7732	6.6	0.0043939456809383
19	8048	6.7	0.12862572832962
19	8364	6.8	-0.051750389370113
19	8680	6.9	-0.85121951238254
19	8996	7	0.828867482394
19	9312	7.1	-0.78571922159753
19	9721	7.2	1.0468511170009
19	10130	7.3	0.00085550851654403
19	10539	7.4	-0.045596450031731
19	10948	7.5	-0.17207247714978
19	11357	7.6	-0.12011952111497
19	11766	7.7	0.10838998460677
19	12175	7.8	-0.41428844307084
19	12584	7.9	-0.23690929887817
19	12993	8	-0.32340934996029
19	13402	8.1	0.12858050432989
19	13916	8.2	1.1042084980989
19	14430	8.3	-1.0836141147884
19	14944	8.4	0.35324051820208
19	15458	8.5	-0.51285838021432
19	15972	8.6	0.11468442217449
19	16486	8.7	0.69253856523428
19	17000	8.8	-0.6806041402044
19	17514	8.9	1.0310569531983
19	18028	9	0.040471302811049
19	18542	9.1	-1.1755825959146
19	19173	9.2	0.45354004784024
19	19804	9.3	0.77610734007322
19	20435	9.4	-0.96654678264169
19	21066	9.5	-0.006779503496368
19	21697	9.6	0.46706270147116
19	22328	9.7	0.23966216412372
19	22959	9.8	-0.20367866316811
19	23590	9.9	-0.20179950082674
19	24221	10	-0.41137306962625
19	24852	10.1	0.60980307403952
19	25483	10.2	0.11177323115987
19	26114	10.3	0.29434207812884
19	26745	10.4	-0.19595205781517
19	27376	10.5	0.094826295156984
19	28007	10.6	-0.57611725537573
19	28638	10.7	-0.34098634340335
19	29269	10.8	-0.089932785485871
19	29900	10.9	0.89327634358778
19	30531	11	-0.14051026082598
19	31162	11.1	-0.23387009941505
19	31793	11.2	-0.37562646588778
19	32424	11.3	0.58908539107069
19	33055	11.4	-0.63177724790293
19	33686	11.5	-0.19238620845133
19	34317	11.6	1.2670604666229
19	34948	11.7	-1.1704705244629
19	35579	11.8	0.54797779077198
19	36210	11.9	-0.58935058068016
19	36841	12	0.8971620689379
19	37472	12.1	-0.43670681745279
19	38103	12.2	-0.19192161003595
19	38734	12.3	0.2505912392866
19	39365	12.4	-0.17287212458907
19	39996	12.5	0.82151754242371
19	40627	12.6	-0.67358363999521
19	41258	12.7	0.32334913301746
19	41889	12.8	0.16175614977257
19	42520	12.9	-0.57614858546295
19	43151	13	0.45428002558182
19	43782	13.1	-0.10659536467866
19	44413	13.2	0.19755785365124
19	45044	13.3	-0.53534135373773
19	45675	13.4	0.65282707174774
19	46306	13.5	-0.10144360130653
19	46937	13.6	-0.4323069580132
19	47568	13.7	-0.0035263372352645
19	48199	13.8	0.14472998823042
19	48830	13.9	-0.29880860219709
19	49461	14	-0.21058203415016
19	50092	14.1	1.0192286219914
19	50723	14.2	-0.53895445051602
19	51354	14.3	-0.50843536637259
19	51985	14.4	0.25842706786936
19	52616	14.5	0.63905413912142
19	53247	14.6	-1.0191713113803
19	53878	14.7	1.1625535540749
19	54509	14.8	-0.46877736670432
19	55140	14.9	-0.72804228686728
19	55771	15	1.0675167072564
19	56402	15.1	-0.25288621592335
19	57033	15.2	0.048103698156794
19	57664	15.3	0.27983378756325
19	58295	15.4	-0.91285046974662
19	58926	15.5	0.59042965820989
19	59557	15.6	-0.14234004428143
19	60188	15.7	0.20669115779455
19	60819	15.8	-0.39740974442104
19	61450	15.9	0.11071857928766
19	62081	16	0.35505952262319
19	62712	16.1	-0.11334719900042
19	63343	16.2	-0.74212115525736
19	63974	16.3	0.60752653090752
19	64605	16.4	-0.39496735332069
19	65236	16.5	-0.27697262498553
19	65867	16.6	0.45086490714457
19	66498	16.7	-0.35351410747971
19	67129	16.8	0.69056825751904
19	67760	16.9	0.30748343809975
19	68391	17	-0.96785032360348
19	69022	17.1	1.0240778556559
19	69653	17.2	-0.21822208820378
19	70284	17.3	-0.089075401867724
19	70915	17.4	-0.54210528556723
19	71546	17.5	0.87772263621446
19	72177	17.6	-0.27346124921461
19	72808	17.7	0.29231973702554
19	73439	17.8	-1.2599635881838
19	74070	17.9	0.75953825686593
19	74701	18	-0.0048226825892783
19	75332	18.1	-0.34064063339027
19	75963	18.2	0.2476069801487
19	76594	18.3	-0.25757053932175
19	77225	18.4	0.20827573547137
19	77856	18.5	-0.48812802312895
19	78487	18.6	0.16741833395791
19	79118	18.7	-0.17066712558737
19	79749	18.8	0.95025541030338
19	80380	18.9	0.060607436113038
19	81011	19	-0.58695720403918
19	81642	19.1	0.48754997637587
19	82273	19.2	-0.75783900469542
19	82904	19.3	0.42939793146214
19	83535	19.4	0.30371971542483
19	84166	19.5	-0.021946488041422
19	84797	19.6	-0.40526685169898
19	85428	19.7	0.42078351227101
19	85942	19.8	0.16318014278077
19	86456	19.9	-0.61780858736022
19	86970	20	-0.029378274758329
19	87484	20.1	-0.38489078863059
19	87998	20.2	-0.0027213005814986
19	88512	20.3	0.34937971672043
19	89026	20.4	0.33563565944789
19	89540	20.5	-0.64451503546444
19	90054	20.6	0.32030534704681
19	90568	20.7	0.082055225526005
19	90977	20.8	-0.23408145166471
19	91386	20.9	0.57986142281443
19	91795	21	-0.94889093716628
19	92204	21.1	1.1367881536251
19	92613	21.2	-0.77496978903653
19	93022	21.3	-0.196481208154
19	93431	21.4	0.31871500876733
18	476	2.2	20.067049981775
18	540	2.3	20.109646088777
18	604	2.4	20.081387613215
18	668	2.5	20.06434409695
18	732	2.6	20.096375485151
18	796	2.7	20.042423109957
18	860	2.8	20.091161428271
18	924	2.9	20.091360193186
18	988	3	20.098182969124
18	1052	3.1	20.093773380495
18	1161	3.2	20.016898333409
18	1270	3.3	20.040306139817
18	1379	3.4	20.104466976102
18	1488	3.5	20.009203465702
18	1597	3.6	20.091754910424
18	1706	3.7	20.079011327452
18	1815	3.8	20.014807212944
18	1924	3.9	20.059180476095
18	2033	4	20.016233949442
18	2142	4.1	19.996748244963
18	2308	4.2	20.091270239917
18	2474	4.3	20.11127123212
18	2640	4.4	20.054608407507
18	2806	4.5	20.02055521782
18	2972	4.6	20.064617071485
18	3138	4.7	20.114061734544
18	3304	4.8	20.052734001053
18	3470	4.9	20.086233182305
18	3636	5	19.999548922696
18	3802	5.1	20.11830774606
18	4037	5.2	20.044250964434
18	4272	5.3	20.069621954442
18	4507	5.4	20.074386652715
18	4742	5.5	20.105339091965
18	4977	5.6	20.024008031883
18	5212	5.7	20.065822053202
18	5447	5.8	20.09783797283
18	5682	5.9	20.102585952461
18	5917	6	20.016183864828
18	6152	6.1	20.000600376695
18	6468	6.2	20.001190988021
18	6784	6.3	20.114798539444
18	7100	6.4	20.043136543736
18	7416	6.5	20.083932902021
18	7732	6.6	20.084372296589
18	8048	6.7	20.097234869422
18	8364	6.8	20.092059830485
18	8680	6.9	20.006937879247
18	8996	7	20.089824627487
18	9312	7.1	20.011252705327
18	9721	7.2	20.115937817027
18	10130	7.3	20.116023367879
18	10539	7.4	20.111463722875
18	10948	7.5	20.09425647516
18	11357	7.6	20.082244523049
18	11766	7.7	20.09308352151
18	12175	7.8	20.051654677202
18	12584	7.9	20.027963747315
18	12993	8	19.995622812319
18	13402	8.1	20.008480862752
18	13916	8.2	20.118901712561
18	14430	8.3	20.010540301083
18	14944	8.4	20.045864352903
18	15458	8.5	19.994578514881
18	15972	8.6	20.006046957099
18	16486	8.7	20.075300813622
18	17000	8.8	20.007240399602
18	17514	8.9	20.110346094922
18	18028	9	20.114393225203
18	18542	9.1	19.996834965611
18	19173	9.2	20.042188970395
18	19804	9.3	20.119799704403
18	20435	9.4	20.023145026139
18	21066	9.5	20.022467075789
18	21697	9.6	20.069173345936
18	22328	9.7	20.093139562348
18	22959	9.8	20.072771696032
18	23590	9.9	20.052591745949
18	24221	10	20.011454438986
18	24852	10.1	20.07243474639
18	25483	10.2	20.083612069506
18	26114	10.3	20.113046277319
18	26745	10.4	20.093451071538
18	27376	10.5	20.102933701053
18	28007	10.6	20.045321975516
18	28638	10.7	20.011223341175
18	29269	10.8	20.002230062627
18	29900	10.9	20.091557696986
18	30531	11	20.077506670903
18	31162	11.1	20.054119660961
18	31793	11.2	20.016557014373
18	32424	11.3	20.07546555348
18	33055	11.4	20.012287828689
18	33686	11.5	19.993049207844
18	34317	11.6	20.119755254507
18	34948	11.7	20.00270820206
18	35579	11.8	20.057505981138
18	36210	11.9	19.998570923069
18	36841	12	20.088287129963
18	37472	12.1	20.044616448218
18	38103	12.2	20.025424287214
18	38734	12.3	20.050483411143
18	39365	12.4	20.033196198684
18	39996	12.5	20.115347952927
18	40627	12.6	20.047989588927
18	41258	12.7	20.080324502229
18	41889	12.8	20.096500117206
18	42520	12.9	20.03888525866
18	43151	13	20.084313261218
18	43782	13.1	20.07365372475
18	44413	13.2	20.093409510115
18	45044	13.3	20.039875374741
18	45675	13.4	20.105158081916
18	46306	13.5	20.095013721786
18	46937	13.6	20.051783025984
18	47568	13.7	20.051430392261
18	48199	13.8	20.065903391084
18	48830	13.9	20.036022530864
18	49461	14	20.014964327449
18	50092	14.1	20.116887189648
18	50723	14.2	20.062991744597
18	51354	14.3	20.012148207959
18	51985	14.4	20.037990914746
18	52616	14.5	20.101896328658
18	53247	14.6	19.99997919752
18	53878	14.7	20.116234552928
18	54509	14.8	20.069356816257
18	55140	14.9	19.996552587571
18	55771	15	20.103304258296
18	56402	15.1	20.078015636704
18	57033	15.2	20.08282600652
18	57664	15.3	20.110809385276
18	58295	15.4	20.019524338301
18	58926	15.5	20.078567304122
18	59557	15.6	20.064333299694
18	60188	15.7	20.085002415474
18	60819	15.8	20.045261441031
18	61450	15.9	20.05633329896
18	62081	16	20.091839251223
18	62712	16.1	20.080504531323
18	63343	16.2	20.006292415797
18	63974	16.3	20.067045068888
18	64605	16.4	20.027548333555
18	65236	16.5	19.999851071057
18	65867	16.6	20.044937561771
18	66498	16.7	20.009586151023
18	67129	16.8	20.078642976775
18	67760	16.9	20.109391320585
18	68391	17	20.012606288225
18	69022	17.1	20.115014073791
18	69653	17.2	20.09319186497
18	70284	17.3	20.084284324783
18	70915	17.4	20.030073796227
18	71546	17.5	20.117846059848
18	72177	17.6	20.090499934927
18	72808	17.7	20.119731908629
18	73439	17.8	19.993735549811
18	74070	17.9	20.069689375497
18	74701	18	20.069207107238
18	75332	18.1	20.035143043899
18	75963	18.2	20.059903741914
18	76594	18.3	20.034146687982
18	77225	18.4	20.054974261529
18	77856	18.5	20.006161459216
18	78487	18.6	20.022903292612
18	79118	18.7	20.005836580053
18	79749	18.8	20.100862121084
18	80380	18.9	20.106922864695
18	81011	19	20.048227144291
18	81642	19.1	20.096982141929
18	82273	19.2	20.021198241459
18	82904	19.3	20.064138034605
18	83535	19.4	20.094510006148
18	84166	19.5	20.092315357344
18	84797	19.6	20.051788672174
18	85428	19.7	20.093867023401
18	85942	19.8	20.110185037679
18	86456	19.9	20.048404178943
18	86970	20	20.045466351467
18	87484	20.1	20.006977272604
18	87998	20.2	20.006705142546
18	88512	20.3	20.041643114218
18	89026	20.4	20.075206680163
18	89540	20.5	20.010755176616
18	90054	20.6	20.042785711321
18	90568	20.7	20.050991233874
18	90977	20.8	20.027583088707
18	91386	20.9	20.085569230989
18	91795	21	19.990680137272
18	92204	21.1	20.104358952635
18	92613	21.2	20.026861973731
18	93022	21.3	20.007213852915
18	93431	21.4	20.039085353792
17	412	2.1	416.34012864494
17	476	2.2	416.34012864494
17	540	2.3	414.33347426489
17	604	2.4	412.32256038158
17	668	2.5	410.31447227455
17	732	2.6	408.30808847616
17	796	2.7	406.29850161974
17	860	2.8	404.29430986475
17	924	2.9	402.28524440087
17	988	3	400.276159061
17	1052	3.1	398.26639146075
17	1161	3.2	396.25706480823
17	1270	3.3	394.25542546651
17	1379	3.4	392.2514454032
17	1488	3.5	390.2410494181
17	1597	3.6	388.24017954374
17	1706	3.7	386.23105473314
17	1815	3.8	384.22320424869
17	1924	3.9	382.22177401374
17	2033	4	380.21590656441
17	2142	4.1	378.21433365941
17	2308	4.2	376.21470927571
17	2474	4.3	374.20563293094
17	2640	4.4	372.1945565374
17	2806	4.5	370.18914628339
17	2972	4.6	368.18714126245
17	3138	4.7	366.18073016729
17	3304	4.8	364.16937473055
17	3470	4.9	362.16415191246
17	3636	5	360.15557926075
17	3802	5.1	358.15567481633
17	4037	5.2	356.14389478915
17	4272	5.3	354.13952025332
17	4507	5.4	352.13260868249
17	4742	5.5	350.12522065385
17	4977	5.6	348.11473745937
17	5212	5.7	346.11238716573
17	5447	5.8	344.10585557544
17	5682	5.9	342.09612247395
17	5917	6	340.08591458646
17	6152	6.1	338.0843466898
17	6468	6.2	336.08433710264
17	6784	6.3	334.08426845584
17	7100	6.4	332.07283934046
17	7416	6.5	330.0685762439
17	7732	6.6	328.06023361441
17	8048	6.7	326.05184704657
17	8364	6.8	324.04217425389
17	8680	6.9	322.03301895206
17	8996	7	320.03237563063
17	9312	7.1	318.02344384345
17	9721	7.2	316.0223690503
17	10130	7.3	314.01082601004
17	10539	7.4	311.99927441491
17	10948	7.5	309.98817877278
17	11357	7.6	307.97880381202
17	11766	7.7	305.97063001617
17	12175	7.8	303.96137234781
17	12584	7.9	301.95625745939
17	12993	8	299.95351160419
17	13402	8.1	297.95399976091
17	13916	8.2	295.95320214502
17	14430	8.3	293.94136272269
17	14944	8.4	291.94035916816
17	15458	8.5	289.93582329756
17	15972	8.6	287.93641588139
17	16486	8.7	285.93586164993
17	17000	8.8	283.92838220751
17	17514	8.9	281.92770863481
17	18028	9	279.91672475265
17	18542	9.1	277.90533616768
17	19173	9.2	275.90570311213
17	19804	9.3	273.90153477051
17	20435	9.4	271.88960555125
17	21066	9.5	269.88734155602
17	21697	9.6	267.88514535411
17	22328	9.7	265.87827864299
17	22959	9.8	263.8690153707
17	23590	9.9	261.86178883365
17	24221	10	259.85658024071
17	24852	10.1	257.8554852747
17	25483	10.2	255.84829243177
17	26114	10.3	253.83998188473
17	26745	10.4	251.82872799114
17	27376	10.5	249.81943356871
17	28007	10.6	247.80919090725
17	28638	10.7	245.80470927301
17	29269	10.8	243.8036374162
17	29900	10.9	241.80346486456
17	30531	11	239.79435977481
17	31162	11.1	237.78665975222
17	31793	11.2	235.78129837164
17	32424	11.3	233.77969316096
17	33055	11.4	231.77219724496
17	33686	11.5	229.77101894209
17	34317	11.6	227.77176445277
17	34948	11.7	225.75983967839
17	35579	11.8	223.75961931401
17	36210	11.9	221.75391930995
17	36841	12	219.75411266303
17	37472	12.1	217.74533462173
17	38103	12.2	215.74092353845
17	38734	12.3	213.73843162285
17	39365	12.4	211.73343385808
17	39996	12.5	209.73016477094
17	40627	12.6	207.7186807156
17	41258	12.7	205.71393232676
17	41889	12.8	203.70595052815
17	42520	12.9	201.69635120884
17	43151	13	199.69251323006
17	43782	13.1	197.68413256561
17	44413	13.2	195.67681782791
17	45044	13.3	193.66752756152
17	45675	13.4	191.66359057363
17	46306	13.5	189.65312547969
17	46937	13.6	187.64367479617
17	47568	13.7	185.63854707319
17	48199	13.8	183.63345461269
[...]
58	58295	15.4	24.639307604917
58	58926	15.5	24.657398001984
58	59557	15.6	24.675494523602
58	60188	15.7	24.693562017945
58	60819	15.8	24.711722111764
58	61450	15.9	24.729792333342
58	62081	16	24.747889027796
58	62712	16.1	24.76597769396
58	63343	16.2	24.784110096245
58	63974	16.3	24.802179029897
58	64605	16.4	24.820368988819
58	65236	16.5	24.838537345491
58	65867	16.6	24.856622019942
58	66498	16.7	24.874730591173
58	67129	16.8	24.89286007437
58	67760	16.9	24.910994610929
58	68391	17	24.929063847592
58	69022	17.1	24.947163371445
58	69653	17.2	24.965480657125
58	70284	17.3	24.983709990202
58	70915	17.4	25.001990204859
58	71546	17.5	25.020235261961
58	72177	17.6	25.038384910842
58	72808	17.7	25.056572606774
58	73439	17.8	25.074907759852
58	74070	17.9	25.093127364965
58	74701	18	25.111386922909
58	75332	18.1	25.129730196934
58	75963	18.2	25.147998940243
58	76594	18.3	25.166257160027
58	77225	18.4	25.184540238364
58	77856	18.5	25.202915977908
58	78487	18.6	25.221184974982
58	79118	18.7	25.239465179021
58	79749	18.8	25.257748348784
58	80380	18.9	25.276047783422
58	81011	19	25.294400820337
58	81642	19.1	25.312781968468
58	82273	19.2	25.331137164671
58	82904	19.3	25.349521531467
58	83535	19.4	25.367868883384
58	84166	19.5	25.386247805494
58	84797	19.6	25.40463100331
58	85428	19.7	25.422939251212
58	85942	19.8	25.441328717631
58	86456	19.9	25.459740167851
58	86970	20	25.478109216554
58	87484	20.1	25.496598048572
58	87998	20.2	25.515065805137
58	88512	20.3	25.533527667142
58	89026	20.4	25.5518979207
58	89540	20.5	25.570316029999
58	90054	20.6	25.588789100453
58	90568	20.7	25.607268433279
58	90977	20.8	25.625664887126
58	91386	20.9	25.644114520265
58	91795	21	25.662598159615
58	92204	21.1	25.681062796143
58	92613	21.2	25.699585184098
58	93022	21.3	25.71812127219
58	93431	21.4	25.736538300179
69	19804	9.3	3.5204202928464
69	20435	9.4	0.94910113505425
69	21066	9.5	2.104441490806
69	21697	9.6	3.2493514736825
69	22328	9.7	2.5863825853749
69	22959	9.8	3.380242607317
69	23590	9.9	0.973
69	24221	10	7.7624387760819
69	24852	10.1	0.973
69	25483	10.2	4.7271430273662
69	26114	10.3	4.297576868425
69	26745	10.4	4.2908740958153
69	27376	10.5	0.973
69	28007	10.6	6.1458552960437
69	28638	10.7	2.8451293140591
69	29269	10.8	3.4595394224323
69	29900	10.9	0.973
69	30531	11	1.8088642799676
69	31162	11.1	5.7918620882655
69	31793	11.2	4.1963257326298
69	32424	11.3	0.973
69	33055	11.4	2.796815024521
69	33686	11.5	3.818494182241
69	34317	11.6	5.6172642151899
69	34948	11.7	1.3549245695208
69	35579	11.8	3.6204887741027
69	36210	11.9	2.3787689736896
69	36841	12	0.973
69	37472	12.1	4.3636966383587
69	38103	12.2	2.4282157671303
69	38734	12.3	0.77181668366589
69	39365	12.4	6.9548603482259
69	39996	12.5	0.57457790278743
69	40627	12.6	1.2101941301531
69	41258	12.7	4.4586239791267
69	41889	12.8	5.3254643413108
69	42520	12.9	3.0708650326699
69	43151	13	0.99614463631014
69	43782	13.1	0.973
69	44413	13.2	8.0883504765732
69	45044	13.3	0.973
69	45675	13.4	3.3047680375987
69	46306	13.5	7.4667471849884
69	46937	13.6	3.2131799978371
69	47568	13.7	0.973
69	48199	13.8	1.434877412194
69	48830	13.9	5.6432657283126
69	49461	14	3.6534930551931
69	50092	14.1	4.2856903176293
69	50723	14.2	2.0710731364886
69	51354	14.3	1.6701988513735
69	51985	14.4	2.0462723386701
69	52616	14.5	3.5068461022348
69	53247	14.6	0.7404688724271
69	53878	14.7	2.204580135938
69	54509	14.8	4.1813498203761
69	55140	14.9	6.0037153363897
69	55771	15	0.973
69	56402	15.1	1.335666136903
69	57033	15.2	6.0807182704509
69	57664	15.3	0.973
69	58295	15.4	5.0642272169931
69	58926	15.5	4.1909076027985
69	59557	15.6	1.4160745341856
69	60188	15.7	4.0649465305638
69	60819	15.8	4.099908252035
69	61450	15.9	0.973
69	62081	16	5.4831721750395
69	62712	16.1	1.4694540662881
69	63343	16.2	5.684405757002
69	63974	16.3	0.93107644082541
69	64605	16.4	0.973
69	65236	16.5	5.4163728944321
69	65867	16.6	4.2746785297764
69	66498	16.7	2.9649272133292
69	67129	16.8	0.973
69	67760	16.9	6.1008445937155
69	68391	17	1.9093311974593
69	69022	17.1	3.4479962013265
69	69653	17.2	4.1399560266433
69	70284	17.3	0.973
69	70915	17.4	4.0360699605722
69	71546	17.5	5.8514853679485
69	72177	17.6	1.0675937640518
69	72808	17.7	5.2809353875736
69	73439	17.8	0.973
69	74070	17.9	2.1736716098691
69	74701	18	4.9186505204393
69	75332	18.1	0.70890204278915
69	75963	18.2	2.6826487510782
69	76594	18.3	7.2969176331557
69	77225	18.4	3.5232390167959
69	77856	18.5	3.0788147810846
69	78487	18.6	0.973
69	79118	18.7	2.3597436815475
69	79749	18.8	5.8770266620449
69	80380	18.9	0.973
69	81011	19	6.1948058841578
69	81642	19.1	0.973
69	82273	19.2	2.9087873051615
69	82904	19.3	6.3769777606236
69	83535	19.4	0.973
69	84166	19.5	6.2973075657253
69	84797	19.6	3.3636883802233
69	85428	19.7	1.0950939500392
69	85942	19.8	0.973
69	86456	19.9	6.708472555921
69	86970	20	0.973
69	87484	20.1	3.2412389439349
69	87998	20.2	3.8111573693486
69	88512	20.3	2.7635034459274
69	89026	20.4	2.7637034953617
69	89540	20.5	5.8037391212334
69	90054	20.6	0.973
69	90568	20.7	2.7187951678785
69	90977	20.8	6.4404779273988
69	91386	20.9	1.7309029755959
69	91795	21	0.99270436588505
69	92204	21.1	1.0664459392722
69	92613	21.2	6.6774598623331
69	93022	21.3	0.973
69	93431	21.4	7.0402878794357
68	19804	9.3	0.1419825518504
68	20435	9.4	-0.38791240027642
68	21066	9.5	-0.14873954534995
68	21697	9.6	0.087743298825806
68	22328	9.7	-0.049173675314549
68	22959	9.8	0.11455131205732
68	23590	9.9	-0.71139733302406
68	24221	10	1.0176998406183
68	24852	10.1	-1.1308337244904
68	25483	10.2	0.3951917501632
68	26114	10.3	0.30474729803391
68	26745	10.4	0.30190799559932
68	27376	10.5	-0.9681915052235
68	28007	10.6	0.68684939562807
68	28638	10.7	0.00428551274819
68	29269	10.8	0.13081743333021
68	29900	10.9	-0.51011078946757
68	30531	11	-0.20866895774379
68	31162	11.1	0.61345845640172
68	31793	11.2	0.28223937612491
68	32424	11.3	-0.6142260827357
68	33055	11.4	-0.0046850074548033
68	33686	11.5	0.20601651591715
68	34317	11.6	0.57461829008535
68	34948	11.7	-0.30416003770661
68	35579	11.8	0.16326243688816
68	36210	11.9	-0.092820747941715
68	36841	12	-0.53286398344209
68	37472	12.1	0.31819682179485
68	38103	12.2	-0.081749477121065
68	38734	12.3	-0.4238657192094
68	39365	12.4	0.85133929126894
68	39996	12.5	-0.46512967846354
68	40627	12.6	-0.33308420735413
68	41258	12.7	0.33839349802584
68	41889	12.8	0.51470009712503
68	42520	12.9	0.049289093492533
68	43151	13	-0.37818554400001
68	43782	13.1	-0.85530015325638
68	44413	13.2	1.0856784557458
68	45044	13.3	-1.0033227442065
68	45675	13.4	0.10153245872353
68	46306	13.5	0.9569032426225
68	46937	13.6	0.078700312227014
68	47568	13.7	-0.70335925014223
68	48199	13.8	-0.28633380527609
68	48830	13.9	0.58258383059872
68	49461	14	0.17052540392616
68	50092	14.1	0.2996708998224
68	50723	14.2	-0.15669509349394
68	51354	14.3	-0.23893376388585
68	51985	14.4	-0.16081370464526
68	52616	14.5	0.14069946235978
68	53247	14.6	-0.43054613017013
68	53878	14.7	-0.12696065355556
68	54509	14.8	0.28140195060985
68	55140	14.9	0.65425804848783
68	55771	15	-0.71349047094117
68	56402	15.1	-0.3068944658153
68	57033	15.2	0.67245557615536
68	57664	15.3	-0.77793478260283
68	58295	15.4	0.46416450450195
68	58926	15.5	0.28208535052837
68	59557	15.6	-0.29087071390823
68	60188	15.7	0.25621084035375
68	60819	15.8	0.26222774018532
68	61450	15.9	-0.92670079004019
68	62081	16	0.55006812254433
68	62712	16.1	-0.27955956719815
68	63343	16.2	0.5897513772128
68	63974	16.3	-0.39133632457812
68	64605	16.4	-0.59284019649496
68	65236	16.5	0.53707074525299
68	65867	16.6	0.29933483893984
68	66498	16.7	0.028558404068448
68	67129	16.8	-0.75082723498344
68	67760	16.9	0.6770389528014
68	68391	17	-0.1889432858443
68	69022	17.1	0.12890512391461
68	69653	17.2	0.27072223399298
68	70284	17.3	-0.91962358942254
68	70915	17.4	0.25230994136074
68	71546	17.5	0.62441698352341
68	72177	17.6	-0.36309341762681
68	72808	17.7	0.50574594796636
68	73439	17.8	-0.79674228944352
68	74070	17.9	-0.13311540982684
68	74701	18	0.43368222047572
68	75332	18.1	-0.43683189202564
68	75963	18.2	-0.027482075174348
68	76594	18.3	0.92212935108691
68	77225	18.4	0.1425545991864
68	77856	18.5	0.05069642760791
68	78487	18.6	-0.76359759543553
68	79118	18.7	-0.095172535465125
68	79749	18.8	0.6292541550938
68	80380	18.9	-0.52961477169301
68	81011	19	0.6937555309851
68	81642	19.1	-1.1372511775
68	82273	19.2	0.019644692633278
68	82904	19.3	0.73400463259315
68	83535	19.4	-0.52070657599252
68	84166	19.5	0.71619327657391
68	84797	19.6	0.10999947101809
68	85428	19.7	-0.35764617244713
68	85942	19.8	-0.72319099921735
68	86456	19.9	0.80232542091981
68	86970	20	-0.76106679791117
68	87484	20.1	0.088282272033382
68	87998	20.2	0.20557045785246
68	88512	20.3	-0.011411521700211
68	89026	20.4	-0.011333292280327
68	89540	20.5	0.61455472069792
68	90054	20.6	-0.57639329303058
68	90568	20.7	-0.020692891976779
68	90977	20.8	0.74502704786138
68	91386	20.9	-0.22646725222003
68	91795	21	-0.37845614703837
68	92204	21.1	-0.36265060156584
68	92613	21.2	0.79518831875173
68	93022	21.3	-0.96294739211444
68	93431	21.4	0.87083875841927
67	19173	9.2	20.1004367596
67	19804	9.3	20.114635014785
67	20435	9.4	20.075843774758
67	21066	9.5	20.060969820223
67	21697	9.6	20.069744150105
67	22328	9.7	20.064826782574
67	22959	9.8	20.07628191378
67	23590	9.9	20.005142180477
67	24221	10	20.106912164539
67	24852	10.1	19.99382879209
67	25483	10.2	20.033347967106
67	26114	10.3	20.06382269691
67	26745	10.4	20.09401349647
67	27376	10.5	19.997194345947
67	28007	10.6	20.06587928551
67	28638	10.7	20.066307836785
67	29269	10.8	20.079389580118
67	29900	10.9	20.028378501171
67	30531	11	20.007511605397
67	31162	11.1	20.068857451037
67	31793	11.2	20.09708138865
67	32424	11.3	20.035658780376
67	33055	11.4	20.03519027963
67	33686	11.5	20.055791931222
67	34317	11.6	20.113253760231
67	34948	11.7	20.08283775646
67	35579	11.8	20.099164000149
67	36210	11.9	20.089881925355
67	36841	12	20.036595527011
67	37472	12.1	20.06841520919
67	38103	12.2	20.060240261478
67	38734	12.3	20.017853689557
67	39365	12.4	20.102987618684
67	39996	12.5	20.056474650837
67	40627	12.6	20.023166230102
67	41258	12.7	20.057005579905
67	41889	12.8	20.108475589617
67	42520	12.9	20.113404498966
67	43151	13	20.075585944566
67	43782	13.1	19.990055929241
67	44413	13.2	20.098623774815
67	45044	13.3	19.998291500395
67	45675	13.4	20.008444746267
67	46306	13.5	20.104135070529
67	46937	13.6	20.112005101752
67	47568	13.7	20.041669176738
67	48199	13.8	20.01303579621
67	48830	13.9	20.07129417927
67	49461	14	20.088346719663
67	50092	14.1	20.118313809645
67	50723	14.2	20.102644300296
67	51354	14.3	20.078750923907
67	51985	14.4	20.062669553442
67	52616	14.5	20.076739499678
67	53247	14.6	20.033684886661
67	53878	14.7	20.020988821306
67	54509	14.8	20.049129016367
67	55140	14.9	20.114554821216
67	55771	15	20.043205774121
67	56402	15.1	20.01251632754
67	57033	15.2	20.079761885155
67	57664	15.3	20.001968406895
67	58295	15.4	20.048384857345
67	58926	15.5	20.076593392398
67	59557	15.6	20.047506321007
67	60188	15.7	20.073127405043
67	60819	15.8	20.099350179061
67	61450	15.9	20.006680100057
67	62081	16	20.061686912312
67	62712	16.1	20.033730955592
67	63343	16.2	20.092706093313
67	63974	16.3	20.053572460855
67	64605	16.4	19.994288441206
67	65236	16.5	20.047995515731
67	65867	16.6	20.077928999625
67	66498	16.7	20.080784840032
67	67129	16.8	20.005702116534
67	67760	16.9	20.073406011814
67	68391	17	20.054511683229
67	69022	17.1	20.067402195621
67	69653	17.2	20.09447441902
67	70284	17.3	20.002512060078
67	70915	17.4	20.027743054214
67	71546	17.5	20.090184752566
67	72177	17.6	20.053875410804
67	72808	17.7	20.1044500056
67	73439	17.8	20.024775776656
67	74070	17.9	20.011464235673
67	74701	18	20.054832457721
67	75332	18.1	20.011149268518
67	75963	18.2	20.008401061001
67	76594	18.3	20.100613996109
67	77225	18.4	20.114869456028
67	77856	18.5	20.119939098789
67	78487	18.6	20.043579339245
67	79118	18.7	20.034062085699
67	79749	18.8	20.096987501208
67	80380	18.9	20.044026024039
67	81011	19	20.113401577137
67	81642	19.1	19.999676459387
67	82273	19.2	20.001640928651
67	82904	19.3	20.07504139191
67	83535	19.4	20.022970734311
67	84166	19.5	20.094590061968
67	84797	19.6	20.10559000907
67	85428	19.7	20.069825391825
67	85942	19.8	19.997506291904
67	86456	19.9	20.077738833996
67	86970	20	20.001632154204
67	87484	20.1	20.010460381408
67	87998	20.2	20.031017427193
67	88512	20.3	20.029876275023
67	89026	20.4	20.028742945795
67	89540	20.5	20.090198417865
67	90054	20.6	20.032559088562
67	90568	20.7	20.030489799364
67	90977	20.8	20.10499250415
67	91386	20.9	20.082345778928
67	91795	21	20.044500164224
67	92204	21.1	20.008235104068
67	92613	21.2	20.087753935943
67	93022	21.3	19.991459196731
67	93431	21.4	20.078543072573
66	18542	9.1	416.34012864494
66	19173	9.2	416.34012864494
66	19804	9.3	414.33013567132
66	20435	9.4	412.318722908
66	21066	9.5	410.31118917083
66	21697	9.6	408.3051427916
66	22328	9.7	406.29821900151
66	22959	9.8	404.29178693577
66	23590	9.9	402.28420938581
66	24221	10	400.28374562973
66	24852	10.1	398.27310513195
66	25483	10.2	396.27377268617
66	26114	10.3	394.27048842258
66	26745	10.4	392.26415676287
66	27376	10.5	390.25480609936
66	28007	10.6	388.25513710669
66	28638	10.7	386.24859979331
66	29269	10.8	384.24201962589
66	29900	10.9	382.23413131713
66	30531	11	380.23134398759
66	31162	11.1	378.23064329499
66	31793	11.2	376.22380817257
66	32424	11.3	374.21415072759
66	33055	11.4	372.21063538849
66	33686	11.5	370.20716689829
66	34317	11.6	368.2016382949
66	34948	11.7	366.19036365355
66	35579	11.8	364.18213053585
66	36210	11.9	362.17226483497
66	36841	12	360.16332731815
66	37472	12.1	358.15971830676
66	38103	12.2	356.15292740741
66	38734	12.3	354.14695398221
66	39365	12.4	352.14521910729
66	39996	12.5	350.1349710542
66	40627	12.6	348.12937418056
66	41258	12.7	346.12710806498
66	41889	12.8	344.12145809978
66	42520	12.9	342.11066126344
66	43151	13	340.0993715486
66	43782	13.1	338.0918635938
66	44413	13.2	336.09290842479
66	45044	13.3	334.08309674508
66	45675	13.4	332.08331803972
66	46306	13.5	330.08252403539
66	46937	13.6	328.07216124001
66	47568	13.7	326.06101146136
66	48199	13.8	324.05689509779
66	48830	13.9	322.05564200005
66	49461	14	320.04856321095
66	50092	14.1	318.03977921083
66	50723	14.2	316.02799857731
66	51354	14.3	314.01778485519
66	51985	14.4	312.00996041044
66	52616	14.5	310.00374406217
66	53247	14.6	307.99612075477
66	53878	14.7	305.99280280007
66	54509	14.8	303.99075441988
66	55140	14.9	301.98589209116
66	55771	15	299.974487347
66	56402	15.1	297.97021732756
66	57033	15.2	295.96901617538
66	57664	15.3	293.96109063705
66	58295	15.4	291.96094425033
66	58926	15.5	289.95615633564
66	59557	15.6	287.94854763859
66	60188	15.7	285.94384757532
66	60819	15.8	283.93658546827
66	61450	15.9	281.92670114997
66	62081	16	279.92608360581
66	62712	16.1	277.91996551918
66	63343	16.2	275.9166429577
66	63974	16.3	273.90742303121
66	64605	16.4	271.90211636925
66	65236	16.5	269.90273795972
66	65867	16.6	267.89798897821
66	66498	16.7	265.89024672382
66	67129	16.8	263.88221889259
66	67760	16.9	261.88169914431
66	68391	17	259.87440917729
66	69022	17.1	257.86900859547
66	69653	17.2	255.86231899492
66	70284	17.3	253.85292224032
66	70915	17.4	251.85272148964
66	71546	17.5	249.8499977032
66	72177	17.6	247.84102990443
66	72808	17.7	245.83569294824
66	73439	17.8	243.82529866015
66	74070	17.9	241.82287159397
66	74701	18	239.82177564832
66	75332	18.1	237.81634298985
66	75963	18.2	235.81527854012
66	76594	18.3	233.81448890421
66	77225	18.4	231.80447820739
66	77856	18.5	229.79304200053
66	78487	18.6	227.78109884219
66	79118	18.7	225.77679146719
66	79749	18.8	223.77343579354
66	80380	18.9	221.76378773706
66	81011	19	219.7594356947
66	81642	19.1	217.74814627203
66	82273	19.2	215.74822907428
66	82904	19.3	213.74811543455
66	83535	19.4	211.74066193364
66	84166	19.5	209.73841536715
66	84797	19.6	207.72900704854
66	85428	19.7	205.71849876298
66	85942	19.8	203.71156684892
66	86456	19.9	201.71186666244
66	86970	20	199.70414342413
66	87484	20.1	197.70403066182
66	87998	20.2	195.70303509906
66	88512	20.3	193.69998388358
66	89026	20.4	191.69704678043
66	89540	20.5	189.69422300735
66	90054	20.6	187.68525384208
66	90568	20.7	185.68204846435
66	90977	20.8	183.67905001032
66	91386	20.9	181.66860147374
66	91795	21	179.66041755256
66	92204	21.1	177.65601809738
66	92613	21.2	175.65524505674
66	93022	21.3	173.6465203335
66	93431	21.4	171.64742484128
65	18542	9.1	26.697598627787
65	19173	9.2	26.697598627787
65	19804	9.3	26.716358494605
65	20435	9.4	26.735131612745
65	21066	9.5	26.753868526771
65	21697	9.6	26.77259155884
65	22328	9.7	26.791322780048
65	22959	9.8	26.810049411845
65	23590	9.9	26.828786734789
65	24221	10	26.847457662563
65	24852	10.1	26.866223572918
65	25483	10.2	26.884883941834
65	26114	10.3	26.90358119425
65	26745	10.4	26.922306888927
65	27376	10.5	26.941060760872
65	28007	10.6	26.959724270881
65	28638	10.7	26.978451884985
65	29269	10.8	26.99717989906
65	29900	10.9	27.015920122409
65	30531	11	27.034612736791
65	31162	11.1	27.053285875964
65	31793	11.2	27.07201626961
65	32424	11.3	27.090773004838
65	33055	11.4	27.109472413951
65	33686	11.5	27.128171385809
65	34317	11.6	27.146889585321
65	34948	11.7	27.165661414328
65	35579	11.8	27.184404855882
65	36210	11.9	27.203163534825
65	36841	12	27.221913550748
65	37472	12.1	27.240613834132
65	38103	12.2	27.259343815031
65	38734	12.3	27.278066166198
65	39365	12.4	27.296748957705
65	39996	12.5	27.315511205256
65	40627	12.6	27.334230041954
65	41258	12.7	27.35291779169
65	41889	12.8	27.371637123908
65	42520	12.9	27.390404493417
65	43151	13	27.409176463109
65	43782	13.1	27.427913136501
65	44413	13.2	27.44656998418
65	45044	13.3	27.465328158926
65	45675	13.4	27.483992692917
65	46306	13.5	27.502666702997
65	46937	13.6	27.521430021472
65	47568	13.7	27.540200685097
65	48199	13.8	27.558905703751
65	48830	13.9	27.577583998688
65	49461	14	27.596316666548
65	50092	14.1	27.615065249653
65	50723	14.2	27.633841801236
65	51354	14.3	27.652603728365
65	51985	14.4	27.671343355653
65	52616	14.5	27.690067974094
65	53247	14.6	27.708805724106
65	53878	14.7	27.727503290971
65	54509	14.8	27.746189008517
65	55140	14.9	27.764900989488
65	55771	15	27.783674032783
65	56402	15.1	27.802380485554
65	57033	15.2	27.821058295667
65	57664	15.3	27.839798866491
65	58295	15.4	27.858466832162
65	58926	15.5	27.877178118604
65	59557	15.6	27.895915732253
65	60188	15.7	27.914626198752
65	60819	15.8	27.933360577573
65	61450	15.9	27.952119430278
65	62081	16	27.970791793402
65	62712	16.1	27.989515494738
65	63343	16.2	28.0082131046
65	63974	16.3	28.026965756337
65	64605	16.4	28.045681884403
65	65236	16.5	28.064342682312
65	65867	16.6	28.08305360538
65	66498	16.7	28.10179246556
65	67129	16.8	28.120533991114
65	67760	16.9	28.13920544148
65	68391	17	28.157940080327
65	69022	17.1	28.176657084975
65	69653	17.2	28.195386120422
65	70284	17.3	28.214140422548
65	70915	17.4	28.232808895614
65	71546	17.5	28.251500916929
65	72177	17.6	28.270251215482
65	72808	17.7	28.288967626293
65	73439	17.8	28.307731238699
65	74070	17.9	28.326420490635
65	74701	18	28.345097318824
65	75332	18.1	28.363814622853
65	75963	18.2	28.382491157081
65	76594	18.3	28.401165126389
65	77225	18.4	28.419925158622
65	77856	18.5	28.438698495568
65	78487	18.6	28.457476564044
65	79118	18.7	28.476183365465
65	79749	18.8	28.494881284373
65	80380	18.9	28.513637931975
65	81011	19	28.53234515029
65	81642	19.1	28.551117117255
65	82273	19.2	28.569782943837
65	82904	19.3	28.58845060387
65	83535	19.4	28.607186769027
65	84166	19.5	28.625874336305
65	84797	19.6	28.644628746362
65	85428	19.7	28.66339342274
65	85942	19.8	28.682124719771
65	86456	19.9	28.700788520922
65	86970	20	28.719527203619
65	87484	20.1	28.738194855463
65	87998	20.2	28.756870746748
65	88512	20.3	28.775565824057
65	89026	20.4	28.79425983632
65	89540	20.5	28.81295279084
65	90054	20.6	28.831703102147
65	90568	20.7	28.850399618298
65	90977	20.8	28.869094203168
65	91386	20.9	28.887858321891
65	91795	21	28.90660130428
65	92204	21.1	28.925308965113
65	92613	21.2	28.943982779532
65	93022	21.3	28.962730809389
65	93431	21.4	28.981388966746
