version 2
run General-4-20161208-15:06:37-725
attr configname General
attr datetime 20161208-15:06:37
attr experiment General
attr inifile omnetpp.ini
attr iterationvars ""
attr iterationvars2 $repetition=4
attr measurement ""
attr network com.liborio.locvanet.LocScenario
attr processid 725
attr repetition 4
attr replication #4
attr resultdir results
attr runnumber 4
attr seedset 4
param **.coreDebug false
param **.debug false
param *.**.nic.mac1609_4.bitrate 18Mbps
param *.**.nic.mac1609_4.txPower 20mW
param *.**.nic.mac1609_4.useServiceChannel false
param *.**.nic.phy80211p.analogueModels "xmldoc(\"config_trgi.xml\")"
param *.**.nic.phy80211p.decider "xmldoc(\"config_trgi.xml\")"
param *.**.nic.phy80211p.sensitivity -89dBm
param *.**.nic.phy80211p.thermalNoise -110dBm
param *.**.nic.phy80211p.usePropagationDelay true
param *.**.nic.phy80211p.useThermalNoise true
param *.annotations.draw false
param *.connectionManager.alpha 2.0
param *.connectionManager.carrierFrequency "5.890e9 Hz"
param *.connectionManager.pMax 20mW
param *.connectionManager.sat -89dBm
param *.connectionManager.sendDirect true
param *.manager.autoShutdown true
param *.manager.host "\"localhost\""
param *.manager.launchConfig "xmldoc(\"tunnel.launchd.xml\")"
param *.manager.margin 25
param *.manager.moduleDisplayString "\"\""
param *.manager.moduleName "\"node\""
param *.manager.moduleType "\"org.car2x.veins.nodes.Car\""
param *.manager.port 9999
param *.manager.updateInterval 0.1s
param *.node[*].appl.beaconInterval 0.1s
param *.node[*].appl.beaconPriority 3
param *.node[*].appl.dataOnSch false
param *.node[*].appl.dataPriority 2
param *.node[*].appl.debug false
param *.node[*].appl.headerLength "256 bit"
param *.node[*].appl.maxOffset 0.005s
param *.node[*].appl.sendBeacons true
param *.node[*].appl.sendData true
param *.node[*].applType "\"LocAppCom\""
param *.node[*].mobilityType "\"TraCIMobility\""
param *.node[*].mobilityType.debug true
param *.node[*].veinsmobility.x 0
param *.node[*].veinsmobility.y 0
param *.node[*].veinsmobility.z 1.895
param *.node[*].veinsmobilityType "\"org.car2x.veins.modules.mobility.traci.TraCIMobility\""
param *.node[*].veinsmobilityType.debug true
param *.playgroundSizeX 5000m
param *.playgroundSizeY 5000m
param *.playgroundSizeZ 50m
param *.world.use2D false
param *.world.useTorus false

vector 2  LocScenario.node[0].veinsmobility  posx  ETV
vector 3  LocScenario.node[0].veinsmobility  posy  ETV
vector 4  LocScenario.node[0].veinsmobility  speed  ETV
vector 5  LocScenario.node[0].veinsmobility  acceleration  ETV
vector 6  LocScenario.node[0].veinsmobility  co2emission  ETV
vector 9  LocScenario.node[1].veinsmobility  posx  ETV
vector 10  LocScenario.node[1].veinsmobility  posy  ETV
vector 11  LocScenario.node[1].veinsmobility  speed  ETV
vector 12  LocScenario.node[1].veinsmobility  acceleration  ETV
vector 13  LocScenario.node[1].veinsmobility  co2emission  ETV
vector 16  LocScenario.node[2].veinsmobility  posx  ETV
vector 17  LocScenario.node[2].veinsmobility  posy  ETV
vector 18  LocScenario.node[2].veinsmobility  speed  ETV
vector 19  LocScenario.node[2].veinsmobility  acceleration  ETV
vector 20  LocScenario.node[2].veinsmobility  co2emission  ETV
vector 23  LocScenario.node[3].veinsmobility  posx  ETV
vector 24  LocScenario.node[3].veinsmobility  posy  ETV
vector 25  LocScenario.node[3].veinsmobility  speed  ETV
vector 26  LocScenario.node[3].veinsmobility  acceleration  ETV
vector 27  LocScenario.node[3].veinsmobility  co2emission  ETV
vector 30  LocScenario.node[4].veinsmobility  posx  ETV
vector 31  LocScenario.node[4].veinsmobility  posy  ETV
vector 32  LocScenario.node[4].veinsmobility  speed  ETV
vector 33  LocScenario.node[4].veinsmobility  acceleration  ETV
vector 34  LocScenario.node[4].veinsmobility  co2emission  ETV
vector 37  LocScenario.node[5].veinsmobility  posx  ETV
vector 38  LocScenario.node[5].veinsmobility  posy  ETV
vector 39  LocScenario.node[5].veinsmobility  speed  ETV
vector 40  LocScenario.node[5].veinsmobility  acceleration  ETV
vector 41  LocScenario.node[5].veinsmobility  co2emission  ETV
vector 44  LocScenario.node[6].veinsmobility  posx  ETV
vector 45  LocScenario.node[6].veinsmobility  posy  ETV
vector 46  LocScenario.node[6].veinsmobility  speed  ETV
vector 47  LocScenario.node[6].veinsmobility  acceleration  ETV
vector 48  LocScenario.node[6].veinsmobility  co2emission  ETV
vector 51  LocScenario.node[7].veinsmobility  posx  ETV
vector 52  LocScenario.node[7].veinsmobility  posy  ETV
vector 53  LocScenario.node[7].veinsmobility  speed  ETV
vector 54  LocScenario.node[7].veinsmobility  acceleration  ETV
vector 55  LocScenario.node[7].veinsmobility  co2emission  ETV
vector 58  LocScenario.node[8].veinsmobility  posx  ETV
vector 59  LocScenario.node[8].veinsmobility  posy  ETV
vector 60  LocScenario.node[8].veinsmobility  speed  ETV
vector 61  LocScenario.node[8].veinsmobility  acceleration  ETV
vector 62  LocScenario.node[8].veinsmobility  co2emission  ETV
vector 65  LocScenario.node[9].veinsmobility  posx  ETV
vector 66  LocScenario.node[9].veinsmobility  posy  ETV
vector 67  LocScenario.node[9].veinsmobility  speed  ETV
vector 68  LocScenario.node[9].veinsmobility  acceleration  ETV
vector 69  LocScenario.node[9].veinsmobility  co2emission  ETV
6	22	0.3	5.0413639566253
6	32	0.4	5.1876985907294
6	42	0.5	0.973
6	52	0.6	3.5490675536282
6	62	0.7	3.7016205839375
6	72	0.8	3.484508340263
6	82	0.9	2.2619307174176
6	92	1	3.4495832220166
6	102	1.1	5.229754728071
6	133	1.2	0.973
6	164	1.3	8.9473930145891
6	195	1.4	1.2748491510059
6	226	1.5	1.6811203074284
6	257	1.6	0.65557848248458
6	288	1.7	6.4909879007271
6	319	1.8	0.973
6	350	1.9	2.0584065713977
6	381	2	7.9902840659856
6	412	2.1	0.973
6	476	2.2	2.7248815398144
6	540	2.3	6.4138044732647
6	604	2.4	0.973
6	668	2.5	1.9492642511435
6	732	2.6	2.8382717510514
6	796	2.7	7.6893076421756
6	860	2.8	3.5087032424462
6	924	2.9	2.1855790576997
6	988	3	0.973
6	1052	3.1	4.8047689968583
6	1161	3.2	2.8611779650228
6	1270	3.3	5.1185477068926
6	1379	3.4	0.973
6	1488	3.5	3.5974006163935
6	1597	3.6	2.8536330592777
6	1706	3.7	0.973
6	1815	3.8	5.2891219708321
6	1924	3.9	0.86643219118612
6	2033	4	3.6500906257865
6	2142	4.1	0.67881470046037
6	2308	4.2	7.2615999877008
6	2474	4.3	0.973
6	2640	4.4	1.9091430069624
6	2806	4.5	5.8054429964324
6	2972	4.6	1.4660290207694
6	3138	4.7	2.0225192814385
6	3304	4.8	3.4592717912717
6	3470	4.9	5.2194431251971
6	3636	5	0.973
6	3802	5.1	5.6046276788251
6	4037	5.2	1.5431213584019
6	4272	5.3	3.2025450166909
6	4507	5.4	3.9519073334295
6	4742	5.5	0.973
6	4977	5.6	5.6823538669101
6	5212	5.7	3.1991773543295
6	5447	5.8	1.9254721619636
6	5682	5.9	2.507766853333
6	5917	6	4.7142746110293
6	6152	6.1	0.973
6	6468	6.2	3.1341646494387
6	6784	6.3	7.1159173501087
6	7100	6.4	1.1699933014379
6	7416	6.5	4.1719320176695
6	7732	6.6	0.973
6	8048	6.7	5.3181410701344
6	8364	6.8	3.12742658929
6	8680	6.9	5.3504255575737
6	8996	7	3.0540485037893
6	9312	7.1	0.87359754649694
6	9721	7.2	1.9277741753903
6	10130	7.3	0.973
6	10539	7.4	3.8001084508994
6	10948	7.5	3.7321655110237
6	11357	7.6	1.8610621260271
6	11766	7.7	2.3156045625905
6	12175	7.8	8.0542025503102
6	12584	7.9	0.973
6	12993	8	4.7404782612457
6	13402	8.1	2.5557651661784
6	13916	8.2	4.6407139524759
6	14430	8.3	0.973
6	14944	8.4	6.7926075755588
6	15458	8.5	3.0191792246217
6	15972	8.6	0.95220212390536
6	16486	8.7	4.2639878928184
6	17000	8.8	0.86381109595244
6	17514	8.9	2.4852718773894
6	18028	9	5.4694079880249
6	18542	9.1	0.92965538009166
6	19173	9.2	0.973
6	19804	9.3	7.877961528124
6	20435	9.4	1.8421304131771
6	21066	9.5	0.87108703536978
6	21697	9.6	3.6244853705945
6	22328	9.7	3.9538548151728
6	22959	9.8	0.973
6	23590	9.9	7.3490708546672
6	24221	10	3.7382399357836
6	24852	10.1	0.973
6	25483	10.2	8.6600049221526
6	26114	10.3	1.663266915575
6	26745	10.4	0.973
6	27376	10.5	3.5145706873246
6	28007	10.6	4.1040227687584
6	28638	10.7	3.54137674102
6	29269	10.8	4.8253760931411
6	29900	10.9	0.973
6	30531	11	6.9995349078772
6	31162	11.1	0.76519703280799
6	31793	11.2	2.6530919756888
6	32424	11.3	1.8143078939376
6	33055	11.4	6.5720032865533
6	33686	11.5	3.3189298021508
6	34317	11.6	0.973
6	34948	11.7	3.4574779098084
6	35579	11.8	1.9745859181917
6	36210	11.9	4.9145857374391
6	36841	12	2.5700990121299
6	37472	12.1	3.3188141608094
6	38103	12.2	0.973
6	38734	12.3	3.1234705593267
6	39365	12.4	3.7602734674923
6	39996	12.5	3.2877174879503
6	40627	12.6	3.0891168554201
6	41258	12.7	2.2229858612796
6	41889	12.8	6.5971262540724
6	42520	12.9	0.973
6	43151	13	1.5412670588209
6	43782	13.1	6.6153860950702
6	44413	13.2	3.8388330917051
6	45044	13.3	1.8809765113319
6	45675	13.4	4.1802000233039
6	46306	13.5	0.85226392195125
6	46937	13.6	0.973
6	47568	13.7	4.9741903347373
6	48199	13.8	0.79495665831432
6	48830	13.9	3.8422564744203
6	49461	14	5.9694490981025
6	50092	14.1	4.2872138751038
6	50723	14.2	0.973
6	51354	14.3	5.8141740420274
6	51985	14.4	0.973
6	52616	14.5	6.7969577763446
6	53247	14.6	1.7435081185684
6	53878	14.7	4.2442724804203
6	54509	14.8	0.973
6	55140	14.9	3.7447147364114
6	55771	15	2.2049832046526
6	56402	15.1	2.9136673690562
6	57033	15.2	3.1180534175254
6	57664	15.3	2.1465190216798
6	58295	15.4	6.7153389090726
6	58926	15.5	0.973
6	59557	15.6	5.9224958376872
6	60188	15.7	1.3548188614574
6	60819	15.8	4.8200973908082
6	61450	15.9	0.973
6	62081	16	5.4625445015953
6	62712	16.1	0.973
6	63343	16.2	3.578421593953
6	63974	16.3	1.0337420099519
6	64605	16.4	1.2682492990822
6	65236	16.5	2.7789899074133
6	65867	16.6	4.0098668170177
6	66498	16.7	6.4123721145058
6	67129	16.8	3.9314110054159
6	67760	16.9	2.7349599880969
6	68391	17	3.1448907064875
6	69022	17.1	0.973
6	69653	17.2	4.5878477729975
6	70284	17.3	2.7396796726254
6	70915	17.4	2.3344348081852
6	71546	17.5	3.801758299834
6	72177	17.6	1.99154640656
6	72808	17.7	2.559895098374
6	73439	17.8	6.418076402321
6	74070	17.9	0.973
6	74701	18	3.2278598819961
6	75332	18.1	7.3985354909222
6	75963	18.2	0.973
6	76594	18.3	2.5729069397466
6	77225	18.4	2.3680083060869
6	77856	18.5	3.5495066003814
6	78487	18.6	5.7562822537997
6	79118	18.7	0.973
6	79749	18.8	4.3461709853535
6	80380	18.9	2.555935420636
6	81011	19	6.4057878876744
6	81642	19.1	0.973
6	82273	19.2	3.2515230477338
6	82904	19.3	3.7724668468044
6	83535	19.4	3.2149223295805
6	84166	19.5	0.973
6	84797	19.6	2.3975840439183
5	22	0.3	0.45940596188885
5	32	0.4	0.48689800673163
5	42	0.5	-1.039985737484
5	52	0.6	0.15218243163545
5	62	0.7	0.18304643549492
5	72	0.8	0.13751451529096
5	82	0.9	-0.11530119408853
5	92	1	0.13022440422795
5	102	1.1	0.49590671665499
5	133	1.2	-0.98824044039937
5	164	1.3	1.2610574570717
5	195	1.4	-0.32077773523053
5	226	1.5	-0.23635191910433
5	257	1.6	-0.44796881531365
5	288	1.7	0.75620721047745
5	319	1.8	-0.86490061255173
5	350	1.9	-0.15652966958005
5	381	2	1.0654259583913
5	412	2.1	-0.56353920861145
5	476	2.2	-0.019748820550767
5	540	2.3	0.73887487647593
5	604	2.4	-0.99697266621519
5	668	2.5	-0.17928976314142
5	732	2.6	0.0051655007992224
5	796	2.7	1.0033899515402
5	860	2.8	0.13969264631157
5	924	2.9	-0.13294143853706
5	988	3	-0.8782227153657
5	1052	3.1	0.41030508289111
5	1161	3.2	0.0080765096005209
5	1270	3.3	0.47251453194768
5	1379	3.4	-0.47603487945164
5	1488	3.5	0.15978123405947
5	1597	3.6	0.0059740706347
5	1706	3.7	-0.48165645338596
5	1815	3.8	0.50937795951032
5	1924	3.9	-0.40441870768554
5	2033	4	0.17150408225135
5	2142	4.1	-0.44298838628457
5	2308	4.2	0.91527118049562
5	2474	4.3	-0.6423843346769
5	2640	4.4	-0.18797986228019
5	2806	4.5	0.61595950988121
5	2972	4.6	-0.28049538545311
5	3138	4.7	-0.16489493150729
5	3304	4.8	0.13222874465864
5	3470	4.9	0.49378721350806
5	3636	5	-0.50197318757419
5	3802	5.1	0.57289932467974
5	4037	5.2	-0.26506733107379
5	4272	5.3	0.077684096456494
5	4507	5.4	0.23150053913703
5	4742	5.5	-0.72892140864859
5	4977	5.6	0.58954017660582
5	5212	5.7	0.076366789918367
5	5447	5.8	-0.18616996488998
5	5682	5.9	-0.065637696837086
5	5917	6	0.38846980547532
5	6152	6.1	-1.0458624814171
5	6468	6.2	0.066000982560226
5	6784	6.3	0.88472870555705
5	7100	6.4	-0.34211379189507
5	7416	6.5	0.27731869427953
5	7732	6.6	-1.0216767788399
5	8048	6.7	0.51696631100494
5	8364	6.8	0.06323321003002
5	8680	6.9	0.52020404119975
5	8996	7	0.046043250872749
5	9312	7.1	-0.40340004686733
5	9721	7.2	-0.18497823083308
5	10130	7.3	-0.57053149542771
5	10539	7.4	0.20412007751876
5	10948	7.5	0.1892281326931
5	11357	7.6	-0.19791823334526
5	11766	7.7	-0.10337767037562
5	12175	7.8	1.0777998451842
5	12584	7.9	-0.70971955810673
5	12993	8	0.39565955516881
5	13402	8.1	-0.055698475241677
5	13916	8.2	0.37339845323004
5	14430	8.3	-0.95772346623708
5	14944	8.4	0.81846669614315
5	15458	8.5	0.039146956242639
5	15972	8.6	-0.38705113630275
5	16486	8.7	0.296572521911
5	17000	8.8	-0.40519541865216
5	17514	8.9	-0.069409154192535
5	18028	9	0.54512112026568
5	18542	9.1	-0.39168168893085
5	19173	9.2	-0.67112673509399
5	19804	9.3	1.0425923287636
5	20435	9.4	-0.20329857538453
5	21066	9.5	-0.40349445845933
5	21697	9.6	0.16609852879775
5	22328	9.7	0.23321806106249
5	22959	9.8	-0.66231463751755
5	23590	9.9	0.93287854392546
5	24221	10	0.18670982010665
5	24852	10.1	-1.2400532488944
5	25483	10.2	1.2021103699924
5	26114	10.3	-0.24063806445337
5	26745	10.4	-0.96646876751912
5	27376	10.5	0.14499946378638
5	28007	10.6	0.26600182449911
5	28638	10.7	0.14887792391235
5	29269	10.8	0.41237795124761
5	29900	10.9	-0.78721369088161
5	30531	11	0.86081915958786
5	31162	11.1	-0.4256998007186
5	31793	11.2	-0.0350240149535
5	32424	11.3	-0.20811012692285
5	33055	11.4	0.77182288519108
5	33686	11.5	0.1002174023073
5	34317	11.6	-0.97519829857628
5	34948	11.7	0.13212534741033
5	35579	11.8	-0.17455793807748
5	36210	11.9	0.43248340915888
5	36841	12	-0.05227720877155
5	37472	12.1	0.10223290799185
5	38103	12.2	-0.60914146313443
5	38734	12.3	0.063811592455032
5	39365	12.4	0.19501584637908
5	39996	12.5	0.09676218363456
5	40627	12.6	0.055444547440864
5	41258	12.7	-0.1235014873324
5	41889	12.8	0.77686122232119
5	42520	12.9	-0.77119688456879
5	43151	13	-0.26418314515613
5	43782	13.1	0.78244848295579
5	44413	13.2	0.20798049943988
5	45044	13.3	-0.1955877499422
5	45675	13.4	0.27803838097025
5	46306	13.5	-0.40791471700651
5	46937	13.6	-0.82814488634469
5	47568	13.7	0.44617753999773
5	48199	13.8	-0.41879073148593
5	48830	13.9	0.21266538249328
5	49461	14	0.64938193685375
5	50092	14.1	0.30033500480933
5	50723	14.2	-0.6743141141953
5	51354	14.3	0.61575576579198
5	51985	14.4	-1.06279069304
5	52616	14.5	0.8203765072394
5	53247	14.6	-0.22334234593437
5	53878	14.7	0.29257827736437
5	54509	14.8	-0.77105333381333
5	55140	14.9	0.1918532767333
5	55771	15	-0.12677745718975
5	56402	15.1	0.02005747770891
5	57033	15.2	0.062195691349913
5	57664	15.3	-0.13874915663617
5	58295	15.4	0.80271170698108
5	58926	15.5	-0.52430166604463
5	59557	15.6	0.6382348093204
5	60188	15.7	-0.30400330857372
5	60819	15.8	0.41012867987156
5	61450	15.9	-0.56351019493306
5	62081	16	0.54278628644532
5	62712	16.1	-0.65462008989414
5	63343	16.2	0.156095753517
5	63974	16.3	-0.36967671890743
5	64605	16.4	-0.32054020389914
5	65236	16.5	-0.0069750074297303
5	65867	16.6	0.24736964555924
5	66498	16.7	0.74020452327094
5	67129	16.8	0.2268069440499
5	67760	16.9	-0.019952496536995
5	68391	17	0.064389435807222
5	69022	17.1	-1.0269997019088
5	69653	17.2	0.36538593922742
5	70284	17.3	-0.017003142437879
5	70915	17.4	-0.1005863393657
5	71546	17.5	0.20235373545439
5	72177	17.6	-0.17165743135848
5	72808	17.7	-0.053833964420491
5	73439	17.8	0.73992253644391
5	74070	17.9	-1.1824434146518
5	74701	18	0.085815493110566
5	75332	18.1	0.94343088166788
5	75963	18.2	-0.55441781128756
5	76594	18.3	-0.051082290522757
5	77225	18.4	-0.093251469219098
5	77856	18.5	0.15093360065947
5	78487	18.6	0.60399681455458
5	79118	18.7	-1.0249747047899
5	79749	18.8	0.3163826587377
5	80380	18.9	-0.054290283936993
5	81011	19	0.73823611910921
5	81642	19.1	-0.51399486309382
5	82273	19.2	0.088662951556024
5	82904	19.3	0.19559694686905
5	83535	19.4	0.08006924444345
5	84166	19.5	-0.83694212082776
5	84797	19.6	-0.086141278012661
4	12	0.2	20.002919210889
4	22	0.3	20.048859807078
4	32	0.4	20.097549607751
4	42	0.5	19.993551034003
4	52	0.6	20.008769277167
4	62	0.7	20.027073920716
4	72	0.8	20.040825372245
4	82	0.9	20.029295252836
4	92	1	20.042317693259
4	102	1.1	20.091908364925
4	133	1.2	19.993084320885
4	164	1.3	20.119190066592
4	195	1.4	20.087112293069
4	226	1.5	20.063477101158
4	257	1.6	20.018680219627
4	288	1.7	20.094300940675
4	319	1.8	20.00781087942
4	350	1.9	19.992157912462
4	381	2	20.098700508301
4	412	2.1	20.04234658744
4	476	2.2	20.040371705384
4	540	2.3	20.114259193032
4	604	2.4	20.014561926411
4	668	2.5	19.996632950096
4	732	2.6	19.997149500176
4	796	2.7	20.09748849533
4	860	2.8	20.111457759961
4	924	2.9	20.098163616108
4	988	3	20.010341344571
4	1052	3.1	20.05137185286
4	1161	3.2	20.05217950382
4	1270	3.3	20.099430957015
4	1379	3.4	20.05182746907
4	1488	3.5	20.067805592476
4	1597	3.6	20.068402999539
4	1706	3.7	20.020237354201
4	1815	3.8	20.071175150152
4	1924	3.9	20.030733279383
4	2033	4	20.047883687608
4	2142	4.1	20.00358484898
4	2308	4.2	20.09511196703
4	2474	4.3	20.030873533562
4	2640	4.4	20.012075547334
4	2806	4.5	20.073671498322
4	2972	4.6	20.045621959777
4	3138	4.7	20.029132466626
4	3304	4.8	20.042355341092
4	3470	4.9	20.091734062443
4	3636	5	20.041536743685
4	3802	5.1	20.098826676153
4	4037	5.2	20.072319943046
4	4272	5.3	20.080088352691
4	4507	5.4	20.103238406605
4	4742	5.5	20.03034626574
4	4977	5.6	20.089300283401
4	5212	5.7	20.096936962393
4	5447	5.8	20.078319965904
4	5682	5.9	20.07175619622
4	5917	6	20.110603176767
4	6152	6.1	20.006016928626
4	6468	6.2	20.012617026882
4	6784	6.3	20.101089897437
4	7100	6.4	20.066878518248
4	7416	6.5	20.094610387676
4	7732	6.6	19.992442709792
4	8048	6.7	20.044139340892
4	8364	6.8	20.050462661895
4	8680	6.9	20.102483066015
4	8996	7	20.107087391103
4	9312	7.1	20.066747386416
4	9721	7.2	20.048249563333
4	10130	7.3	19.99119641379
4	10539	7.4	20.011608421542
4	10948	7.5	20.030531234811
4	11357	7.6	20.010739411477
4	11766	7.7	20.000401644439
4	12175	7.8	20.108181628957
4	12584	7.9	20.037209673147
4	12993	8	20.076775628664
4	13402	8.1	20.071205781139
4	13916	8.2	20.108545626462
4	14430	8.3	20.012773279839
4	14944	8.4	20.094619949453
4	15458	8.5	20.098534645077
4	15972	8.6	20.059829531447
4	16486	8.7	20.089486783638
4	17000	8.8	20.048967241773
4	17514	8.9	20.042026326354
4	18028	9	20.09653843838
4	18542	9.1	20.057370269487
4	19173	9.2	19.990257595978
4	19804	9.3	20.094516828854
4	20435	9.4	20.074186971316
4	21066	9.5	20.03383752547
4	21697	9.6	20.050447378349
4	22328	9.7	20.073769184456
4	22959	9.8	20.007537720704
4	23590	9.9	20.100825575097
4	24221	10	20.119496557107
4	24852	10.1	19.995491232218
4	25483	10.2	20.115702269217
4	26114	10.3	20.091638462772
4	26745	10.4	19.99499158602
4	27376	10.5	20.009491532398
4	28007	10.6	20.036091714848
4	28638	10.7	20.05097950724
4	29269	10.8	20.092217302364
4	29900	10.9	20.013495933276
4	30531	11	20.099577849235
4	31162	11.1	20.057007869163
4	31793	11.2	20.053505467668
4	32424	11.3	20.032694454975
4	33055	11.4	20.109876743495
4	33686	11.5	20.119898483725
4	34317	11.6	20.022378653868
4	34948	11.7	20.035591188609
4	35579	11.8	20.018135394801
4	36210	11.9	20.061383735717
4	36841	12	20.05615601484
4	37472	12.1	20.066379305639
4	38103	12.2	20.005465159325
4	38734	12.3	20.011846318571
4	39365	12.4	20.031347903209
4	39996	12.5	20.041024121572
4	40627	12.6	20.046568576316
4	41258	12.7	20.034218427583
4	41889	12.8	20.111904549815
4	42520	12.9	20.034784861358
4	43151	13	20.008366546843
4	43782	13.1	20.086611395138
4	44413	13.2	20.107409445082
4	45044	13.3	20.087850670088
4	45675	13.4	20.115654508185
4	46306	13.5	20.074863036484
4	46937	13.6	19.99204854785
4	47568	13.7	20.03666630185
4	48199	13.8	19.994787228701
4	48830	13.9	20.01605376695
4	49461	14	20.080991960636
4	50092	14.1	20.111025461117
4	50723	14.2	20.043594049697
4	51354	14.3	20.105169626276
4	51985	14.4	19.998890556972
4	52616	14.5	20.080928207696
4	53247	14.6	20.058593973103
4	53878	14.7	20.087851800839
4	54509	14.8	20.010746467458
4	55140	14.9	20.029931795131
4	55771	15	20.017254049412
4	56402	15.1	20.019259797183
4	57033	15.2	20.025479366318
4	57664	15.3	20.011604450655
4	58295	15.4	20.091875621353
4	58926	15.5	20.039445454748
4	59557	15.6	20.10326893568
4	60188	15.7	20.072868604823
4	60819	15.8	20.11388147281
4	61450	15.9	20.057530453317
4	62081	16	20.111809081961
4	62712	16.1	20.046347072972
4	63343	16.2	20.061956648324
4	63974	16.3	20.024988976433
4	64605	16.4	19.992934956043
4	65236	16.5	19.9922374553
4	65867	16.6	20.016974419856
4	66498	16.7	20.090994872183
4	67129	16.8	20.113675566588
4	67760	16.9	20.111680316934
4	68391	17	20.118119260515
4	69022	17.1	20.015419290324
4	69653	17.2	20.051957884247
4	70284	17.3	20.050257570003
4	70915	17.4	20.040198936067
4	71546	17.5	20.060434309612
4	72177	17.6	20.043268566476
4	72808	17.7	20.037885170034
4	73439	17.8	20.111877423679
4	74070	17.9	19.993633082213
4	74701	18	20.002214631524
4	75332	18.1	20.096557719691
4	75963	18.2	20.041115938562
4	76594	18.3	20.03600770951
4	77225	18.4	20.026682562588
4	77856	18.5	20.041775922654
4	78487	18.6	20.10217560411
4	79118	18.7	19.999678133631
4	79749	18.8	20.031316399504
4	80380	18.9	20.025887371111
4	81011	19	20.099710983022
4	81642	19.1	20.048311496712
4	82273	19.2	20.057177791868
4	82904	19.3	20.076737486555
4	83535	19.4	20.084744410999
4	84166	19.5	20.001050198916
4	84797	19.6	19.992436071115
3	2	0.1	416.34012864494
3	12	0.2	416.34012864494
3	22	0.3	414.33988718021
3	32	0.4	412.33505177175
3	42	0.5	410.32534750603
3	52	0.6	408.32604283536
3	62	0.7	406.32521637876
3	72	0.8	404.32255950398
3	82	0.9	402.31852751873
3	92	1	400.31564851634
3	102	1.1	398.31146730275
3	133	1.2	396.30232714709
3	164	1.3	394.30306914655
3	195	1.4	392.29120088954
3	226	1.5	390.28254032896
3	257	1.6	388.27624322796
3	288	1.7	386.27442570212
3	319	1.8	384.26504629491
3	350	1.9	382.26431567567
3	381	2	380.26515031364
3	412	2.1	378.25533096077
3	476	2.2	376.25114685784
3	540	2.3	374.24716023813
3	604	2.4	372.23578505604
3	668	2.5	370.23437934913
3	732	2.6	368.23476649462
3	796	2.7	366.23510198641
3	860	2.8	364.22540383178
3	924	2.9	362.21430878593
3	988	3	360.20454312093
3	1052	3.1	358.20355946155
3	1161	3.2	356.19847285484
3	1270	3.3	354.19330548508
3	1379	3.4	352.18341308918
3	1488	3.5	350.178280922
3	1597	3.6	348.17155098279
3	1706	3.7	346.16476130437
3	1815	3.8	344.162788069
3	1924	3.9	342.15572118251
3	2033	4	340.15269838109
3	2142	4.1	338.14796058211
3	2308	4.2	336.14765255525
3	2474	4.3	334.13819204746
3	2640	4.4	332.13515522098
3	2806	4.5	330.1339981457
3	2972	4.6	328.1266816307
3	3138	4.7	326.1221699988
3	3304	4.8	324.11930727461
3	3470	4.9	322.11512229634
3	3636	5	320.10599957049
3	3802	5.1	318.10189644989
3	4037	5.2	316.09206448055
3	4272	5.3	314.08488311767
3	4507	5.4	312.07692493342
3	4742	5.5	310.06665180216
3	4977	5.6	308.06366770113
3	5212	5.7	306.05478834705
3	5447	5.8	304.04514534432
3	5682	5.9	302.03736399428
3	5917	6	300.03023900466
3	6152	6.1	298.01922941497
3	6468	6.2	296.01867818628
3	6784	6.3	294.01746696441
3	7100	6.4	292.00740867866
3	7416	6.5	290.00077144453
3	7732	6.6	287.99136109341
3	8048	6.7	285.99216725236
3	8364	6.8	283.98780387861
3	8680	6.9	281.9828081887
3	8996	7	279.97261058961
3	9312	7.1	277.96195256962
3	9721	7.2	275.95532844834
3	10130	7.3	273.95055406271
3	10539	7.4	271.95148484812
3	10948	7.5	269.95037448424
3	11357	7.6	267.94737188677
3	11766	7.7	265.94634842171
3	12175	7.8	263.94635870727
3	12584	7.9	261.93559126626
3	12993	8	259.9319208418
3	13402	8.1	257.92429392159
3	13916	8.2	255.91722397208
3	14430	8.3	253.90642013224
3	14944	8.4	251.90519328547
3	15458	8.5	249.89578197819
3	15972	8.6	247.88597921123
3	16486	8.7	245.880046858
3	17000	8.8	243.87114885436
3	17514	8.9	241.86630270269
3	18028	9	239.86215062506
3	18542	9.1	237.85254747373
3	19173	9.2	235.84686104049
3	19804	9.3	233.84788570532
3	20435	9.4	231.83848470984
3	21066	9.5	229.83111664884
3	21697	9.6	227.82778343064
3	22328	9.7	225.82278926905
3	22959	9.8	223.81546298568
3	23590	9.9	221.81475968162
3	24221	10	219.80472782744
3	24852	10.1	217.79282892215
3	25483	10.2	215.79333023655
3	26114	10.3	213.78181075048
3	26745	10.4	211.77269758435
3	27376	10.5	209.77324886211
3	28007	10.6	207.77235018181
3	28638	10.7	205.76879155036
3	29269	10.8	203.76374417722
3	29900	10.9	201.7545731286
3	30531	11	199.75327401831
3	31162	11.1	197.74336693356
3	31793	11.2	195.73771673944
3	32424	11.3	193.73241677663
3	33055	11.4	191.7291978626
3	33686	11.5	189.71826091441
3	34317	11.6	187.70632181747
3	34948	11.7	185.70413445753
3	35579	11.8	183.70062587744
3	36210	11.9	181.6988628327
3	36841	12	179.69277506296
3	37472	12.1	177.68721005213
3	38103	12.2	175.680622738
3	38734	12.3	173.68012668484
3	39365	12.4	171.67899253187
3	39996	12.5	169.67590826961
3	40627	12.6	167.67185640993
3	41258	12.7	165.66725011877
3	41889	12.8	163.66387881132
3	42520	12.9	161.65273908761
3	43151	13	159.64931113821
3	43782	13.1	157.64852495363
3	44413	13.2	155.63991448158
3	45044	13.3	153.629224257
3	45675	13.4	151.62048986059
3	46306	13.5	149.6089751505
3	46937	13.6	147.60153948469
3	47568	13.7	145.60238505884
3	48199	13.8	143.59876897014
3	48830	13.9	141.59934068312
3	49461	14	139.59778579591
3	50092	14.1	137.58973725314
3	50723	14.2	135.57868543608
3	51354	14.3	133.57437659007
3	51985	14.4	131.56391034173
3	52616	14.5	129.56407173223
3	53247	14.6	127.55602956459
3	53878	14.7	125.55022076408
3	54509	14.8	123.54148625459
3	55140	14.9	121.54046208395
3	55771	15	119.53751942893
3	56402	15.1	117.53584451651
3	57033	15.2	115.53396903437
3	57664	15.3	113.531471611
3	58295	15.4	111.53036164421
3	58926	15.5	109.52122476282
3	59557	15.6	107.51733076584
3	60188	15.7	105.50705458176
3	60819	15.8	103.49981835408
3	61450	15.9	101.48848094305
3	62081	16	99.482778491837
3	62712	16.1	97.47164831467
3	63343	16.2	95.467064173277
3	63974	16.3	93.460919113723
3	64605	16.4	91.458470728109
3	65236	16.5	89.45922766368
3	65867	16.6	87.460054347565
3	66498	16.7	85.458407397393
3	67129	16.8	83.449358588701
3	67760	16.9	81.438041767779
3	68391	17	79.426924466789
3	69022	17.1	77.415163287684
3	69653	17.2	75.413671846542
3	70284	17.3	73.408526638174
3	70915	17.4	71.403551456942
3	71546	17.5	69.399582113731
3	72177	17.6	67.393589284209
3	72808	17.7	65.3893129857
3	73439	17.8	63.385575013256
3	74070	17.9	61.37443800209
3	74701	18	59.375125126804
3	75332	18.1	57.374954118234
3	75963	18.2	55.365349038823
3	76594	18.3	53.361287997676
3	77225	18.4	51.357737766548
3	77856	18.5	49.355120026591
3	78487	18.6	47.350992988699
3	79118	18.7	45.340826135017
3	79749	18.8	43.340908769838
3	80380	18.9	41.337827657878
3	81011	19	39.335289435063
3	81642	19.1	37.325369037272
3	82273	19.2	35.320588458461
3	82904	19.3	33.314921272498
3	83535	19.4	31.307298166405
3	84166	19.5	29.298874388065
3	84797	19.6	27.298819819818
2	2	0.1	26.697598627787
2	12	0.2	26.697598627787
2	22	0.3	26.71626748085
2	32	0.4	26.734979210566
2	42	0.5	26.753736382786
2	52	0.6	26.772396492468
2	62	0.7	26.791070805435
2	72	0.8	26.809762202243
2	82	0.9	26.82846643337
2	92	1	26.847159903361
2	102	1.1	26.865865527281
2	133	1.2	26.884617434492
2	164	1.3	26.903277108589
2	195	1.4	26.922054477988
2	226	1.5	26.940801908995
2	257	1.6	26.959527281125
2	288	1.7	26.978210844038
2	319	1.8	26.996964984257
2	350	1.9	27.015638402745
2	381	2	27.034297212218
2	412	2.1	27.053055458581
2	476	2.2	27.071761109467
2	540	2.3	27.090464917183
2	604	2.4	27.109237684566
2	668	2.5	27.12791740385
2	732	2.6	27.146580389905
2	796	2.7	27.165243858059
2	860	2.8	27.184000973242
2	924	2.9	27.20277112603
2	988	3	27.221528871308
2	1052	3.1	27.240204651495
2	1161	3.2	27.25891872572
2	1270	3.3	27.27763355373
2	1379	3.4	27.296392481825
2	1488	3.5	27.315106981279
2	1597	3.6	27.333836393219
2	1706	3.7	27.352566362722
2	1815	3.8	27.371251378919
2	1924	3.9	27.389983935688
2	2033	4	27.408678747799
2	2142	4.1	27.427389566496
2	2308	4.2	27.446059040803
2	2474	4.3	27.464813937957
2	2640	4.4	27.483508880969
2	2806	4.5	27.502186279699
2	2972	4.6	27.520921166325
2	3138	4.7	27.539629874138
2	3304	4.8	27.5583231922
2	3470	4.9	27.577028851256
2	3636	5	27.59578059579
2	3802	5.1	27.614485490844
2	4037	5.2	27.63324385496
2	4272	5.3	27.651977480172
2	4507	5.4	27.67071835569
2	4742	5.5	27.689480837303
2	4977	5.6	27.708175288212
2	5212	5.7	27.726924761284
2	5447	5.8	27.745681361718
2	5682	5.9	27.76442058679
2	5917	6	27.783153685853
2	6152	6.1	27.801923041053
2	6468	6.2	27.820594785235
2	6784	6.3	27.839272689331
2	7100	6.4	27.858033165726
2	7416	6.5	27.876761712421
2	7732	6.6	27.895516141448
2	8048	6.7	27.914175216725
2	8364	6.8	27.9328825408
2	8680	6.9	27.95159576647
2	8996	7	27.970357543118
2	9312	7.1	27.989123617013
2	9721	7.2	28.007852041322
2	10130	7.3	28.026563201493
2	10539	7.4	28.045221113594
2	10948	7.5	28.063898076352
2	11357	7.6	28.082592699894
2	11766	7.7	28.1012688516
2	12175	7.8	28.119935355001
2	12584	7.9	28.138702450155
2	12993	8	28.157403306726
2	13402	8.1	28.176141090458
2	13916	8.2	28.194873675815
2	14430	8.3	28.21364111069
2	14944	8.4	28.232319160618
2	15458	8.5	28.251073598569
2	15972	8.6	28.269831690131
2	16486	8.7	28.288553657961
2	17000	8.8	28.307303305095
2	17514	8.9	28.326015135081
2	18028	9	28.344720487065
2	18542	9.1	28.363476715554
2	19173	9.2	28.38219638814
2	19804	9.3	28.400853424035
2	20435	9.4	28.419607765743
2	21066	9.5	28.438343133464
2	21697	9.6	28.457040842788
2	22328	9.7	28.475754054195
2	22959	9.8	28.494489031993
2	23590	9.9	28.51316219554
2	24221	10	28.531922425241
2	24852	10.1	28.55070008069
2	25483	10.2	28.569362001172
2	26114	10.3	28.588136115388
2	26745	10.4	28.606887770698
2	27376	10.5	28.625549224857
2	28007	10.6	28.64422421191
2	28638	10.7	28.662924025083
2	29269	10.8	28.681637733129
2	29900	10.9	28.700389928674
2	30531	11	28.719068653059
2	31162	11.1	28.73782771825
2	31793	11.2	28.756547052605
2	32424	11.3	28.775263118146
2	33055	11.4	28.793959760635
2	33686	11.5	28.81272843785
2	34317	11.6	28.831506468419
2	34948	11.7	28.850193483105
2	35579	11.8	28.868892829134
2	36210	11.9	28.887575883558
2	36841	12	28.906299301937
2	37472	12.1	28.925017841251
2	38103	12.2	28.943745922028
2	38734	12.3	28.96241715124
2	39365	12.4	28.981094336029
2	39996	12.5	28.999789721773
2	40627	12.6	29.018494138393
2	41258	12.7	29.037203729689
2	41889	12.8	29.055901794511
2	42520	12.9	29.074672364291
2	43151	13	29.09337095777
2	43782	13.1	29.112044894866
2	44413	13.2	29.130791858381
2	45044	13.3	29.149558232851
2	45675	13.4	29.16830635299
2	46306	13.5	29.18708042263
2	46937	13.6	29.205816421327
2	47568	13.7	29.22447512873
2	48199	13.8	29.243175478169
2	48830	13.9	29.2618367416
2	49461	14	29.280517853228
2	50092	14.1	29.299259572089
2	50723	14.2	29.31802932141
2	51354	14.3	29.336736136561
2	51985	14.4	29.355500420593
2	52616	14.5	29.374165513687
2	53247	14.6	29.392907173047
2	53878	14.7	29.411627987723
2	54509	14.8	29.430376108917
2	55140	14.9	29.449052267208
2	55771	15	29.467746331289
2	56402	15.1	29.486428563148
2	57033	15.2	29.505112666985
2	57664	15.3	29.523802575585
2	58295	15.4	29.542479534638
2	58926	15.5	29.56123141129
2	59557	15.6	29.57993435453
2	60188	15.7	29.598696864636
2	60819	15.8	29.617431001917
2	61450	15.9	29.636203416771
2	62081	16	29.654923238857
2	62712	16.1	29.673693719536
2	63343	16.2	29.692403104101
2	63974	16.3	29.711127057183
2	64605	16.4	29.7298165081
2	65236	16.5	29.748476042793
2	65867	16.6	29.767134926504
2	66498	16.7	29.785816897383
2	67129	16.8	29.804567952026
2	67760	16.9	29.823340174707
2	68391	17	29.842110535209
2	69022	17.1	29.860886905218
2	69653	17.2	29.879567424685
2	70284	17.3	29.898282045856
2	70915	17.4	29.916995080113
2	71546	17.5	29.935698726583
2	72177	17.6	29.954421258856
2	72808	17.7	29.973127770232
2	73439	17.8	29.991829257248
2	74070	17.9	30.010599801711
2	74701	18	30.02925998797
2	75332	18.1	30.047928183444
2	75963	18.2	30.066684429928
2	76594	18.3	30.085388932242
2	77225	18.4	30.104088667013
2	77856	18.5	30.122779698564
2	78487	18.6	30.141484816845
2	79118	18.7	30.160246306537
2	79749	18.8	30.178912134681
2	80380	18.9	30.197607491022
2	81011	19	30.216297780416
2	81642	19.1	30.235056969861
2	82273	19.2	30.253768187836
2	82904	19.3	30.27248768078
2	83535	19.4	30.291225428914
2	84166	19.5	30.309970649961
2	84797	19.6	30.328637758663
13	164	1.3	0.973
13	195	1.4	7.7120912189644
13	226	1.5	4.2390811126074
13	257	1.6	6.6356587923992
13	288	1.7	0.973
13	319	1.8	8.0960746522378
13	350	1.9	0.973
13	381	2	4.4060884773037
13	412	2.1	5.527877574093
13	476	2.2	4.048654459726
13	540	2.3	2.1133010546102
13	604	2.4	7.8723590988586
13	668	2.5	2.0998585433399
13	732	2.6	0.973
13	796	2.7	6.2126455755325
13	860	2.8	6.6503373116445
13	924	2.9	2.6130294458787
13	988	3	5.8663939345362
13	1052	3.1	0.973
13	1161	3.2	8.8926328030997
13	1270	3.3	3.7655858251785
13	1379	3.4	5.7099100619641
13	1488	3.5	1.2500812254747
13	1597	3.6	1.7844529569309
13	1706	3.7	6.5341047996981
13	1815	3.8	0.973
13	1924	3.9	5.4691489658332
13	2033	4	2.4803901667654
13	2142	4.1	0.973
13	2308	4.2	6.5637573548746
13	2474	4.3	2.2853423547696
13	2640	4.4	1.1527309354727
13	2806	4.5	5.5415118002675
13	2972	4.6	3.1794851851983
13	3138	4.7	3.830270458593
13	3304	4.8	6.0758550621473
13	3470	4.9	0.973
13	3636	5	10.430124182327
13	3802	5.1	0.91764022099034
13	4037	5.2	1.6850947038984
13	4272	5.3	2.8172912280457
13	4507	5.4	2.6731873640862
13	4742	5.5	6.3087538095873
13	4977	5.6	2.6107090244841
13	5212	5.7	4.3722431658606
13	5447	5.8	3.3211659391024
13	5682	5.9	3.3368431543185
13	5917	6	0.973
13	6152	6.1	9.9040466891704
13	6468	6.2	0.973
13	6784	6.3	5.7236635551674
13	7100	6.4	1.8637534808007
13	7416	6.5	4.6817123609764
13	7732	6.6	6.9802191139748
13	8048	6.7	0.973
13	8364	6.8	3.0935936244105
13	8680	6.9	3.1591031822899
13	8996	7	5.4311781890785
13	9312	7.1	4.3440352789694
13	9721	7.2	0.87968265729452
13	10130	7.3	2.5090980663256
13	10539	7.4	5.6531102305261
13	10948	7.5	0.65318341564773
13	11357	7.6	3.8038407129223
13	11766	7.7	2.7942029613797
13	12175	7.8	2.1445019286196
13	12584	7.9	5.8596151095963
13	12993	8	0.7443409525565
13	13402	8.1	8.5830538411932
13	13916	8.2	0.65425107432383
13	14430	8.3	2.364649339782
13	14944	8.4	0.86531739771365
13	15458	8.5	4.9625164715366
13	15972	8.6	6.8928716719553
13	16486	8.7	0.973
13	17000	8.8	5.6238976557246
13	17514	8.9	0.973
13	18028	9	0.973
13	18542	9.1	6.1995955187617
13	19173	9.2	4.9468827301917
13	19804	9.3	0.973
13	20435	9.4	5.6378366879148
13	21066	9.5	5.567683717374
13	21697	9.6	0.973
13	22328	9.7	9.032787707928
13	22959	9.8	2.9462180547542
13	23590	9.9	0.973
13	24221	10	3.6728452845761
13	24852	10.1	2.6089107436859
13	25483	10.2	0.973
13	26114	10.3	6.7525148160315
13	26745	10.4	2.5816510753485
13	27376	10.5	1.4724754406675
13	28007	10.6	2.8342724226874
13	28638	10.7	3.4563958529434
13	29269	10.8	2.7437905363868
13	29900	10.9	8.9000915079396
13	30531	11	0.973
13	31162	11.1	3.8268916305813
13	31793	11.2	2.0626194135034
13	32424	11.3	4.5511769251448
13	33055	11.4	3.8747251573811
13	33686	11.5	3.4267944911841
13	34317	11.6	4.9875981315881
13	34948	11.7	1.7565365588749
13	35579	11.8	0.973
13	36210	11.9	3.3533448496306
13	36841	12	2.3391959952611
13	37472	12.1	3.1446816089928
13	38103	12.2	5.3093565437551
13	38734	12.3	0.973
13	39365	12.4	1.5655840118856
13	39996	12.5	5.0675671573514
13	40627	12.6	7.6349536635413
13	41258	12.7	0.973
13	41889	12.8	1.3025425065512
13	42520	12.9	7.0841289263153
13	43151	13	0.973
13	43782	13.1	6.4776524886808
13	44413	13.2	1.1378300082519
13	45044	13.3	9.2011646026387
13	45675	13.4	1.9879446186273
13	46306	13.5	2.9179416691019
13	46937	13.6	0.973
13	47568	13.7	0.973
13	48199	13.8	4.7698070488615
13	48830	13.9	2.1422040520433
13	49461	14	1.375012816084
13	50092	14.1	6.1466120731515
13	50723	14.2	7.4255107318862
13	51354	14.3	1.2776668056997
13	51985	14.4	0.973
13	52616	14.5	2.1957697263189
13	53247	14.6	3.2366417139868
13	53878	14.7	2.1399926210915
13	54509	14.8	5.3562398403088
13	55140	14.9	3.0977470904458
13	55771	15	1.0504859008341
13	56402	15.1	2.5663039242527
13	57033	15.2	0.973
13	57664	15.3	3.2736164010961
13	58295	15.4	1.3694622976954
13	58926	15.5	6.5592587804219
13	59557	15.6	2.0791486634786
13	60188	15.7	5.844886953164
13	60819	15.8	5.0932326247631
13	61450	15.9	2.2402418607566
13	62081	16	0.973
13	62712	16.1	3.6671052203114
13	63343	16.2	0.973
13	63974	16.3	6.1412786691883
13	64605	16.4	2.8907681066203
13	65236	16.5	2.7724903090889
13	65867	16.6	0.973
13	66498	16.7	8.001699141066
13	67129	16.8	2.7925347913591
13	67760	16.9	2.6662211357123
13	68391	17	3.6829048223223
13	69022	17.1	3.9812429475055
13	69653	17.2	0.973
13	70284	17.3	9.8498427581302
13	70915	17.4	1.8335270514956
13	71546	17.5	0.973
13	72177	17.6	4.5059539002127
13	72808	17.7	2.8327031451424
13	73439	17.8	1.3086568981869
13	74070	17.9	4.6815478483371
13	74701	18	1.1719024942131
13	75332	18.1	2.3854849796963
13	75963	18.2	9.1170854855014
13	76594	18.3	0.973
13	77225	18.4	3.3246983390762
13	77856	18.5	5.2838598544031
13	78487	18.6	0.973
13	79118	18.7	6.9844967884506
13	79749	18.8	0.973
13	80380	18.9	6.3293424782742
13	81011	19	2.8602939968026
13	81642	19.1	3.9116704866958
13	82273	19.2	3.7179695435737
13	82904	19.3	1.3847111560808
13	83535	19.4	5.1429612818324
13	84166	19.5	1.1341719802286
13	84797	19.6	1.1325013589648
13	85428	19.7	0.973
13	85942	19.8	6.0532315366762
13	86456	19.9	4.1145094677082
13	86970	20	2.9408741335642
13	87484	20.1	6.176537712868
13	87998	20.2	0.70941643769458
13	88512	20.3	0.973
13	89026	20.4	2.7581379884956
13	89540	20.5	4.3020272758109
13	90054	20.6	5.6099120271511
13	90568	20.7	4.2834182325025
13	91082	20.8	1.139980188895
13	91596	20.9	3.222174741762
12	164	1.3	-1.200450074222
12	195	1.4	1.1382883478453
12	226	1.5	0.36242447876688
12	257	1.6	0.88838680377915
12	288	1.7	-0.87388936649234
12	319	1.8	1.2084450149547
12	350	1.9	-0.82035611840684
12	381	2	0.39530538350146
12	412	2.1	0.6395090727743
12	476	2.2	0.31148495306031
12	540	2.3	-0.11468949248997
12	604	2.4	1.1444811452725
12	668	2.5	-0.12031645987285
12	732	2.6	-1.0193028166108
12	796	2.7	0.78336063667187
12	860	2.8	0.87260798333197
12	924	2.9	-0.0097769236997891
12	988	3	0.69651675256878
12	1052	3.1	-1.1594812894873
12	1161	3.2	1.3535557818533
12	1270	3.3	0.23707144209343
12	1379	3.4	0.65516768014124
12	1488	3.5	-0.31007306079871
12	1597	3.6	-0.19373872237743
12	1706	3.7	0.83115697654257
12	1815	3.8	-0.52558574440848
12	1924	3.9	0.60046378304794
12	2033	4	-0.045239191219437
12	2142	4.1	-0.57081172029463
12	2308	4.2	0.83532990676606
12	2474	4.3	-0.087890488771336
12	2640	4.4	-0.33196399297367
12	2806	4.5	0.61343769449358
12	2972	4.6	0.10373017255649
12	3138	4.7	0.24288337079135
12	3304	4.8	0.72116760320423
12	3470	4.9	-0.86463261812877
12	3636	5	1.6456840876101
12	3802	5.1	-0.38544267739621
12	4037	5.2	-0.22074037149871
12	4272	5.3	0.021750749846738
12	4507	5.4	-0.0090897274745316
12	4742	5.5	0.7642376488641
12	4977	5.6	-0.024797127259433
12	5212	5.7	0.34936831169528
12	5447	5.8	0.12496774374096
12	5682	5.9	0.127803642314
12	5917	6	-0.78114799965469
12	6152	6.1	1.5168738440794
12	6468	6.2	-1.313738230308
12	6784	6.3	0.63523752624544
12	7100	6.4	-0.18530636254528
12	7416	6.5	0.41239936952444
12	7732	6.6	0.89368429935487
12	8048	6.7	-1.4364398650015
12	8364	6.8	0.076716310350307
12	8680	6.9	0.09032961683257
12	8996	7	0.57041375997418
12	9312	7.1	0.33799406543196
12	9721	7.2	-0.39549417949587
12	10130	7.3	-0.049426760624414
12	10539	7.4	0.61425823627676
12	10948	7.5	-0.44370053595443
12	11357	7.6	0.22376798884558
12	11766	7.7	0.0097711052035621
12	12175	7.8	-0.12757357378987
12	12584	7.9	0.65586448628235
12	12993	8	-0.42473251469918
12	13402	8.1	1.2238319423567
12	13916	8.2	-0.44460373869452
12	14430	8.3	-0.083539243640161
12	14944	8.4	-0.39947676340223
12	15458	8.5	0.46437426123497
12	15972	8.6	0.8649915049946
12	16486	8.7	-0.51535933999357
12	17000	8.8	0.5979142353544
12	17514	8.9	-0.48267815104722
12	18028	9	-0.57856781415744
12	18542	9.1	0.72114984260981
12	19173	9.2	0.4551193690617
12	19804	9.3	-0.64977396814292
12	20435	9.4	0.60042563737646
12	21066	9.5	0.58207025981222
12	21697	9.6	-1.3098514590232
12	22328	9.7	1.3072819183659
12	22959	9.8	0.03333649676744
12	23590	9.9	-0.513941417171
12	24221	10	0.18676663658383
12	24852	10.1	-0.036117680968033
12	25483	10.2	-0.66369777902956
12	26114	10.3	0.83126880470925
12	26745	10.4	-0.042217772993745
12	27376	10.5	-0.27407075345284
12	28007	10.6	0.011584473240873
12	28638	10.7	0.14152665999461
12	29269	10.8	-0.0078310892361699
12	29900	10.9	1.2704139482379
12	30531	11	-1.2756812549908
12	31162	11.1	0.21829221015452
12	31793	11.2	-0.15078761256468
12	32424	11.3	0.36884304340077
12	33055	11.4	0.22633775363882
12	33686	11.5	0.13222190827594
12	34317	11.6	0.4555785465493
12	34948	11.7	-0.21706154896773
12	35579	11.8	-0.48600254923841
12	36210	11.9	0.11739025251039
12	36841	12	-0.094242329224308
12	37472	12.1	0.073866448057238
12	38103	12.2	0.52310072533679
12	38734	12.3	-0.96039507547019
12	39365	12.4	-0.25472216160416
12	39996	12.5	0.47690275913126
12	40627	12.6	1.0055559945076
12	41258	12.7	-0.519082297469
12	41889	12.8	-0.31100430795611
12	42520	12.9	0.89044172320552
12	43151	13	-1.095654788254
12	43782	13.1	0.76659976350566
12	44413	13.2	-0.34576468223616
12	45044	13.3	1.3244752359368
12	45675	13.4	-0.17109938330229
12	46306	13.5	0.021868784420782
12	46937	13.6	-0.81181336185704
12	47568	13.7	-0.5307429401018
12	48199	13.8	0.41120422766518
12	48830	13.9	-0.13635381907076
12	49461	14	-0.29590674784764
12	50092	14.1	0.69650248644312
12	50723	14.2	0.95509114654551
12	51354	14.3	-0.31851943292274
12	51985	14.4	-0.60964075752747
12	52616	14.5	-0.12597962077283
12	53247	14.6	0.090545638707376
12	53878	14.7	-0.13747850651281
12	54509	14.8	0.52962500991992
12	55140	14.9	0.059991540301674
12	55771	15	-0.36485919717876
12	56402	15.1	-0.049171470598317
12	57033	15.2	-0.47660876281913
12	57664	15.3	0.099530984095004
12	58295	15.4	-0.29715980017954
12	58926	15.5	0.78144667716934
12	59557	15.6	-0.15049441308268
12	60188	15.7	0.62968815361643
12	60819	15.8	0.47097529746964
12	61450	15.9	-0.11960070399077
12	62081	16	-0.66461475253611
12	62712	16.1	0.17813829971999
12	63343	16.2	-0.62948946763917
12	63974	16.3	0.69171286301373
12	64605	16.4	0.0165920772303
12	65236	16.5	-0.0079438717411762
12	65867	16.6	-0.75123371892378
12	66498	16.7	1.0751955932028
12	67129	16.8	-0.0048276532928782
12	67760	16.9	-0.030920158024337
12	68391	17	0.17915877833911
12	69022	17.1	0.23989000575412
12	69653	17.2	-1.5966825057696
12	70284	17.3	1.4558147479611
12	70915	17.4	-0.20376709567831
12	71546	17.5	-0.64449348810594
12	72177	17.6	0.3516921794494
12	72808	17.7	0.0043142742757141
12	73439	17.8	-0.3115265408627
12	74070	17.9	0.387723208224
12	74701	18	-0.34003623206711
12	75332	18.1	-0.087521135572892
12	75963	18.2	1.2996066171325
12	76594	18.3	-1.1613656522171
12	77225	18.4	0.10685664765727
12	77856	18.5	0.51078807209265
12	78487	18.6	-0.97690124187377
12	79118	18.7	0.8639762138262
12	79749	18.8	-0.72217062996593
12	80380	18.9	0.72812719110026
12	81011	19	0.009015379768158
12	81642	19.1	0.22593849341757
12	82273	19.2	0.18505170680637
12	82904	19.3	-0.29704431516315
12	83535	19.4	0.47877793696802
12	84166	19.5	-0.3491477999264
12	84797	19.6	-0.34894981965476
12	85428	19.7	-0.60610362025177
12	85942	19.8	0.6711022105689
12	86456	19.9	0.26792718789071
12	86970	20	0.024852190562541
12	87484	20.1	0.69002143219112
12	87998	20.2	-0.43737626776565
12	88512	20.3	-0.72843707944266
12	89026	20.4	-0.011397828161712
12	89540	20.5	0.30749971985351
12	90054	20.6	0.57494080089963
12	90568	20.7	0.29944012581836
12	91082	20.8	-0.34850232324096
12	91596	20.9	0.081496643810546
11	133	1.2	18.625069868695
11	164	1.3	18.505024861273
11	195	1.4	18.618853696057
11	226	1.5	18.655096143934
11	257	1.6	18.743934824312
11	288	1.7	18.656545887662
11	319	1.8	18.777390389158
11	350	1.9	18.695354777317
11	381	2	18.734885315667
11	412	2.1	18.798836222945
11	476	2.2	18.829984718251
11	540	2.3	18.818515769002
11	604	2.4	18.932963883529
11	668	2.5	18.920932237542
11	732	2.6	18.819001955881
11	796	2.7	18.897338019548
11	860	2.8	18.984598817881
11	924	2.9	18.983621125511
11	988	3	19.053272800768
11	1052	3.1	18.937324671819
11	1161	3.2	19.072680250005
11	1270	3.3	19.096387394214
11	1379	3.4	19.161904162228
11	1488	3.5	19.130896856148
11	1597	3.6	19.11152298391
11	1706	3.7	19.194638681565
11	1815	3.8	19.142080107124
11	1924	3.9	19.202126485429
11	2033	4	19.197602566307
11	2142	4.1	19.140521394277
11	2308	4.2	19.224054384954
11	2474	4.3	19.215265336077
11	2640	4.4	19.182068936779
11	2806	4.5	19.243412706229
11	2972	4.6	19.253785723484
11	3138	4.7	19.278074060563
11	3304	4.8	19.350190820884
11	3470	4.9	19.263727559071
11	3636	5	19.428295967832
11	3802	5.1	19.389751700092
11	4037	5.2	19.367677662943
11	4272	5.3	19.369852737927
11	4507	5.4	19.36894376518
11	4742	5.5	19.445367530066
11	4977	5.6	19.44288781734
11	5212	5.7	19.47782464851
11	5447	5.8	19.490321422884
11	5682	5.9	19.503101787115
11	5917	6	19.42498698715
11	6152	6.1	19.576674371558
11	6468	6.2	19.445300548527
11	6784	6.3	19.508824301151
11	7100	6.4	19.490293664897
11	7416	6.5	19.531533601849
11	7732	6.6	19.620902031785
11	8048	6.7	19.477258045285
11	8364	6.8	19.48492967632
11	8680	6.9	19.493962638003
11	8996	7	19.551004014
11	9312	7.1	19.584803420544
11	9721	7.2	19.545254002594
11	10130	7.3	19.540311326532
11	10539	7.4	19.601737150159
11	10948	7.5	19.557367096564
11	11357	7.6	19.579743895448
11	11766	7.7	19.580721005969
11	12175	7.8	19.56796364859
11	12584	7.9	19.633550097218
11	12993	8	19.591076845748
11	13402	8.1	19.713460039984
11	13916	8.2	19.668999666114
11	14430	8.3	19.66064574175
11	14944	8.4	19.62069806541
11	15458	8.5	19.667135491534
11	15972	8.6	19.753634642033
11	16486	8.7	19.702098708034
11	17000	8.8	19.761890131569
11	17514	8.9	19.713622316464
11	18028	9	19.655765535049
11	18542	9.1	19.72788051931
11	19173	9.2	19.773392456216
11	19804	9.3	19.708415059401
11	20435	9.4	19.768457623139
11	21066	9.5	19.82666464912
11	21697	9.6	19.695679503218
11	22328	9.7	19.826407695055
11	22959	9.8	19.829741344731
11	23590	9.9	19.778347203014
11	24221	10	19.797023866673
11	24852	10.1	19.793412098576
11	25483	10.2	19.727042320673
11	26114	10.3	19.810169201144
11	26745	10.4	19.805947423844
11	27376	10.5	19.778540348499
11	28007	10.6	19.779698795823
11	28638	10.7	19.793851461823
11	29269	10.8	19.793068352899
11	29900	10.9	19.920109747723
11	30531	11	19.792541622224
11	31162	11.1	19.814370843239
11	31793	11.2	19.799292081983
11	32424	11.3	19.836176386323
11	33055	11.4	19.858810161687
11	33686	11.5	19.872032352514
11	34317	11.6	19.917590207169
11	34948	11.7	19.895884052272
11	35579	11.8	19.847283797349
11	36210	11.9	19.8590228226
11	36841	12	19.849598589677
11	37472	12.1	19.856985234483
11	38103	12.2	19.909295307017
11	38734	12.3	19.81325579947
11	39365	12.4	19.787783583309
11	39996	12.5	19.835473859222
11	40627	12.6	19.936029458673
11	41258	12.7	19.884121228926
11	41889	12.8	19.853020798131
11	42520	12.9	19.942064970451
11	43151	13	19.832499491626
11	43782	13.1	19.909159467976
11	44413	13.2	19.874582999753
11	45044	13.3	20.007030523346
11	45675	13.4	19.989920585016
11	46306	13.5	19.992107463458
11	46937	13.6	19.910926127273
11	47568	13.7	19.857851833262
11	48199	13.8	19.898972256029
11	48830	13.9	19.885336874122
11	49461	14	19.855746199337
11	50092	14.1	19.925396447981
11	50723	14.2	20.020905562636
11	51354	14.3	19.989053619344
11	51985	14.4	19.928089543591
11	52616	14.5	19.915491581514
11	53247	14.6	19.924546145384
11	53878	14.7	19.910798294733
11	54509	14.8	19.963760795725
11	55140	14.9	19.969759949755
11	55771	15	19.933274030037
11	56402	15.1	19.928356882977
11	57033	15.2	19.880696006696
11	57664	15.3	19.890649105105
11	58295	15.4	19.860933125087
11	58926	15.5	19.939077792804
11	59557	15.6	19.924028351496
11	60188	15.7	19.986997166857
11	60819	15.8	20.034094696604
11	61450	15.9	20.022134626205
11	62081	16	19.955673150952
11	62712	16.1	19.973486980924
11	63343	16.2	19.91053803416
11	63974	16.3	19.979709320461
11	64605	16.4	19.981368528184
11	65236	16.5	19.98057414101
11	65867	16.6	19.905450769118
11	66498	16.7	20.012970328438
11	67129	16.8	20.012487563109
11	67760	16.9	20.009395547306
11	68391	17	20.02731142514
11	69022	17.1	20.051300425716
11	69653	17.2	19.891632175139
11	70284	17.3	20.037213649935
11	70915	17.4	20.016836940367
11	71546	17.5	19.952387591556
11	72177	17.6	19.987556809501
11	72808	17.7	19.987988236929
11	73439	17.8	19.956835582843
11	74070	17.9	19.995607903665
11	74701	18	19.961604280458
11	75332	18.1	19.952852166901
11	75963	18.2	20.082812828614
11	76594	18.3	19.966676263392
11	77225	18.4	19.977361928158
11	77856	18.5	20.028440735367
11	78487	18.6	19.93075061118
11	79118	18.7	20.017148232563
11	79749	18.8	19.944931169566
11	80380	18.9	20.017743888676
11	81011	19	20.018645426653
11	81642	19.1	20.041239275995
11	82273	19.2	20.059744446675
11	82904	19.3	20.030040015159
11	83535	19.4	20.077917808856
11	84166	19.5	20.043003028863
11	84797	19.6	20.008108046898
11	85428	19.7	19.947497684873
11	85942	19.8	20.014607905929
11	86456	19.9	20.041400624719
11	86970	20	20.043885843775
11	87484	20.1	20.112887986994
11	87998	20.2	20.069150360217
11	88512	20.3	19.996306652273
11	89026	20.4	19.995166869457
11	89540	20.5	20.025916841442
11	90054	20.6	20.083410921532
11	90568	20.7	20.113354934114
11	91082	20.8	20.07850470179
11	91596	20.9	20.086654366171
10	102	1.1	416.34012864494
10	133	1.2	416.34012864494
10	164	1.3	414.47766863887
10	195	1.4	412.62721283074
10	226	1.5	410.76537442626
10	257	1.6	408.89991186841
10	288	1.7	407.02556566662
10	319	1.8	405.15995813805
10	350	1.9	403.28226646416
10	381	2	401.41277814452
10	412	2.1	399.53933687076
10	476	2.2	397.65950066759
10	540	2.3	395.77654969345
10	604	2.4	393.89474558532
10	668	2.5	392.00149695441
10	732	2.6	390.10945145776
10	796	2.7	388.22759873216
10	860	2.8	386.33791259779
10	924	2.9	384.4395006037
10	988	3	382.54118637638
10	1052	3.1	380.63590715723
10	1161	3.2	378.7422224585
10	1270	3.3	376.83500254338
10	1379	3.4	374.92541197363
10	1488	3.5	373.00926989235
10	1597	3.6	371.09622846346
10	1706	3.7	369.18512437293
10	1815	3.8	367.26570892229
10	1924	3.9	365.35154919651
10	2033	4	363.43138498437
10	2142	4.1	361.51167315273
10	2308	4.2	359.5976692943
10	2474	4.3	357.67531234752
10	2640	4.4	355.75383428345
10	2806	4.5	353.83567577558
10	2972	4.6	351.9113830455
10	3138	4.7	349.98605303986
10	3304	4.8	348.05829426178
10	3470	4.9	346.12332398958
10	3636	5	344.19699982546
10	3802	5.1	342.25421923557
10	4037	5.2	340.31529297524
10	4272	5.3	338.37857406294
10	4507	5.4	336.44163764863
10	4742	5.5	334.5047921293
10	4977	5.6	332.56030442626
10	5212	5.7	330.61606468823
10	5447	5.8	328.66833135521
10	5682	5.9	326.71934837628
10	5917	6	324.76908739317
10	6152	6.1	322.82663769301
10	6468	6.2	320.86901963703
10	6784	6.3	318.92453863197
10	7100	6.4	316.97370541189
10	7416	6.5	315.02472520868
10	7732	6.6	313.07162111581
10	8048	6.7	311.10958040537
10	8364	6.8	309.16190373125
10	8680	6.9	307.21345991338
10	8996	7	305.26411282212
10	9312	7.1	303.30906173714
10	9721	7.2	301.35063079677
10	10130	7.3	299.39615469844
10	10539	7.4	297.44217285524
10	10948	7.5	295.48204858462
10	11357	7.6	293.52636120744
10	11766	7.7	291.56843620682
10	12175	7.8	289.61041349761
10	12584	7.9	287.65366649195
10	12993	8	285.69036100688
10	13402	8.1	283.73130273981
10	13916	8.2	281.76000646202
10	14430	8.3	279.79315610948
10	14944	8.4	277.82714112829
10	15458	8.5	275.86512081398
10	15972	8.6	273.89845687419
10	16486	8.7	271.92314323754
10	17000	8.8	269.95298306429
10	17514	8.9	267.97684389951
10	18028	9	266.00553139448
10	18542	9.1	264.04000442166
10	19173	9.2	262.06726613232
10	19804	9.3	260.08997676409
10	20435	9.4	258.11918497163
10	21066	9.5	256.14238907426
10	21697	9.6	254.15977262112
10	22328	9.7	252.19025435216
10	22959	9.8	250.20766359377
10	23590	9.9	248.22473947882
10	24221	10	246.24695464841
10	24852	10.1	244.26730219874
10	25483	10.2	242.28801091677
10	26114	10.3	240.31535644518
10	26745	10.4	238.33438949522
10	27376	10.5	236.35384471235
10	28007	10.6	234.37604056787
10	28638	10.7	232.39812058159
10	29269	10.8	230.4187853644
10	29900	10.9	228.43952845613
10	30531	11	226.44756772884
10	31162	11.1	224.46836349231
10	31793	11.2	222.48697638874
10	32424	11.3	220.50709712326
10	33055	11.4	218.52352952039
10	33686	11.5	216.53769859707
10	34317	11.6	214.55054548802
10	34948	11.7	212.55883670843
10	35579	11.8	210.56929848957
10	36210	11.9	208.58462017361
10	36841	12	206.59876798474
10	37472	12.1	204.61385819539
10	38103	12.2	202.62820976019
10	38734	12.3	200.63733044969
10	39365	12.4	198.65605484768
10	39996	12.5	196.67732640304
10	40627	12.6	194.69382905111
10	41258	12.7	192.70027639287
10	41889	12.8	190.71191442668
10	42520	12.9	188.72666242511
10	43151	13	186.73250623093
10	43782	13.1	184.74930630825
10	44413	13.2	182.75844058131
10	45044	13.3	180.77103241397
10	45675	13.4	178.77037982836
10	46306	13.5	176.77143819343
10	46937	13.6	174.77227787617
10	47568	13.7	172.78123548776
10	48199	13.8	170.79550039487
10	48830	13.9	168.80565336342
10	49461	14	166.81716983578
10	50092	14.1	164.83164530096
10	50723	14.2	162.83915591698
10	51354	14.3	160.83711586244
10	51985	14.4	158.83826092189
10	52616	14.5	156.84550223514
10	53247	14.6	154.85400331282
10	53878	14.7	152.86159895695
10	54509	14.8	150.87056935146
10	55140	14.9	148.87424362947
10	55771	15	146.87731800722
10	56402	15.1	144.8840408849
10	57033	15.2	142.89125546488
10	57664	15.3	140.90323601227
10	58295	15.4	138.91422127492
10	58926	15.5	136.92817806062
10	59557	15.6	134.93432057666
10	60188	15.7	132.94196799887
10	60819	15.8	130.94331869838
10	61450	15.9	128.93995976372
10	62081	16	126.93779680593
10	62712	16.1	124.94227982802
10	63343	16.2	122.94498151204
10	63974	16.3	120.95397793196
10	64605	16.4	118.95605739773
10	65236	16.5	116.95797094691
10	65867	16.6	114.9599639328
10	66498	16.7	112.96946906639
10	67129	16.8	110.96822251526
10	67760	16.9	108.96702423945
10	68391	17	106.96613515741
10	69022	17.1	104.96345453279
10	69653	17.2	102.95837506861
10	70284	17.3	100.96926202674
10	70915	17.4	98.965591204614
10	71546	17.5	96.963958002044
10	72177	17.6	94.968769571784
10	72808	17.7	92.970064308443
10	73439	17.8	90.971315903447
10	74070	17.9	88.975682685279
10	74701	18	86.97617233283
10	75332	18.1	84.980062256929
10	75963	18.2	82.984827370307
10	76594	18.3	80.976596745332
10	77225	18.4	78.979979483932
10	77856	18.5	76.982293683009
10	78487	18.6	74.979500130208
10	79118	18.7	72.986475343408
10	79749	18.8	70.984811012403
10	80380	18.9	68.990368205535
10	81011	19	66.988644310421
10	81642	19.1	64.986830263784
10	82273	19.2	62.982756889205
10	82904	19.3	60.976833044236
10	83535	19.4	58.97387956749
10	84166	19.5	56.966138432144
10	84797	19.6	54.961888686727
10	85428	19.7	52.961128351485
10	85942	19.8	50.96642889956
10	86456	19.9	48.965018594811
10	86970	20	46.960929085766
10	87484	20.1	44.956591061084
10	87998	20.2	42.945352996135
10	88512	20.3	40.938488583538
10	89026	20.4	38.93890835799
10	89540	20.5	36.939442107849
10	90054	20.6	34.936900938075
10	90568	20.7	32.928610505318
10	91082	20.8	30.917325746835
10	91596	20.9	28.909525923676
9	102	1.1	26.697598627787
9	133	1.2	26.697598627787
9	164	1.3	26.714981525203
9	195	1.4	26.732252383841
9	226	1.5	26.749629479663
9	257	1.6	26.767040400794
9	288	1.7	26.784534235637
9	319	1.8	26.801946509823
9	350	1.9	26.819471568959
9	381	2	26.836920063732
9	412	2.1	26.85440545261
9	476	2.2	26.871950527281
9	540	2.3	26.889524673042
9	604	2.4	26.90708811476
9	668	2.5	26.924758371639
9	732	2.6	26.942417399305
9	796	2.7	26.959981294783
9	860	2.8	26.977618301814
9	924	2.9	26.995336749909
9	988	3	27.013054285517
9	1052	3.1	27.030836827481
9	1161	3.2	27.048511154311
9	1270	3.3	27.066311809372
9	1379	3.4	27.084134590464
9	1488	3.5	27.102018518776
9	1597	3.6	27.11987350777
9	1706	3.7	27.137710415004
9	1815	3.8	27.155624894654
9	1924	3.9	27.173490321048
9	2033	4	27.191411789112
9	2142	4.1	27.209329034974
9	2308	4.2	27.227193006612
9	2474	4.3	27.245134940126
9	2640	4.4	27.263068670765
9	2806	4.5	27.28097141899
9	2972	4.6	27.29893141975
9	3138	4.7	27.316901101714
9	3304	4.8	27.334893452139
9	3470	4.9	27.3529531096
9	3636	5	27.370932070342
9	3802	5.1	27.389064623839
9	4037	5.2	27.407161203722
9	4272	5.3	27.425237181765
9	4507	5.4	27.443315189819
9	4742	5.5	27.461392349523
9	4977	5.6	27.479540836019
9	5212	5.7	27.497687008182
9	5447	5.8	27.515865787114
9	5682	5.9	27.534056229366
9	5917	6	27.552258599615
9	6152	6.1	27.570388064818
9	6468	6.2	27.588659100832
9	6784	6.3	27.606807524813
9	7100	6.4	27.625015235921
9	7416	6.5	27.643205652266
9	7732	6.6	27.66143455811
9	8048	6.7	27.679746872084
9	8364	6.8	27.697925122202
9	8680	6.9	27.716110532302
9	8996	7	27.734304372924
9	9312	7.1	27.752551450628
9	9721	7.2	27.770830073536
9	10130	7.3	27.789071784718
9	10539	7.4	27.807308882869
9	10948	7.5	27.825603310135
9	11357	7.6	27.843856326546
9	11766	7.7	27.862130227366
9	12175	7.8	27.88040504013
9	12584	7.9	27.898667946371
9	12993	8	27.916992064865
9	13402	8.1	27.935276542801
9	13916	8.2	27.953675241759
9	14430	8.3	27.972032445564
9	14944	8.4	27.990381852598
9	15458	8.5	28.008693976208
9	15972	8.6	28.027049440167
9	16486	8.7	28.045485634339
9	17000	8.8	28.063873729693
9	17514	8.9	28.082317628766
9	18028	9	28.100716479178
9	18542	9.1	28.119061331483
9	19173	9.2	28.137473489167
9	19804	9.3	28.155928123434
9	20435	9.4	28.174322113879
9	21066	9.5	28.192772142434
9	21697	9.6	28.211276495981
9	22328	9.7	28.22965860025
9	22959	9.8	28.24816271398
9	23590	9.9	28.266669939027
9	24221	10	28.285129197591
9	24852	10.1	28.303605887205
9	25483	10.2	28.322079205933
9	26114	10.3	28.34049058132
9	26745	10.4	28.35897953956
9	27376	10.5	28.377464557587
9	28007	10.6	28.395923996415
9	28638	10.7	28.414384516429
9	29269	10.8	28.432858245218
9	29900	10.9	28.451331243126
9	30531	11	28.469922809584
9	31162	11.1	28.48839531589
9	31793	11.2	28.506888195549
9	32424	11.3	28.525367002104
9	33055	11.4	28.543880233016
9	33686	11.5	28.562414588177
9	34317	11.6	28.580961283693
9	34948	11.7	28.599550498647
9	35579	11.8	28.618119455108
9	36210	11.9	28.636643052639
9	36841	12	28.655177606277
9	37472	12.1	28.673703364218
9	38103	12.2	28.692236016163
9	38734	12.3	28.710817489434
9	39365	12.4	28.729309328415
9	39996	12.5	28.747777394013
9	40627	12.6	28.766289969253
9	41258	12.7	28.78489639368
9	41889	12.8	28.803454371822
9	42520	12.9	28.821983323732
9	43151	13	28.840595381141
9	43782	13.1	28.859105180384
9	44413	13.2	28.877686526875
9	45044	13.3	28.896235602927
9	45675	13.4	28.914908293104
9	46306	13.5	28.933565014465
9	46937	13.6	28.952223776854
9	47568	13.7	28.97080677218
9	48199	13.8	28.989340232926
9	48830	13.9	29.007912071628
9	49461	14	29.026471184339
9	50092	14.1	29.045002679884
9	50723	14.2	29.063599180453
9	51354	14.3	29.082284820294
9	51985	14.4	29.10094073251
9	52616	14.5	29.119539746563
9	53247	14.6	29.138127002857
9	53878	14.7	29.156722709834
9	54509	14.8	29.175305585853
9	55140	14.9	29.193937892114
9	55771	15	29.212575797425
9	56402	15.1	29.231179650193
9	57033	15.2	29.249778913755
9	57664	15.3	29.268333695115
9	58295	15.4	29.286897765766
9	58926	15.5	29.305434102302
9	59557	15.6	29.324043371759
9	60188	15.7	29.342638595475
9	60819	15.8	29.361292588391
9	61450	15.9	29.379990537735
9	62081	16	29.398677324668
9	62712	16.1	29.417302082679
9	63343	16.2	29.435943466452
9	63974	16.3	29.454526099568
9	64605	16.4	29.47317329069
9	65236	16.5	29.491822030362
9	65867	16.6	29.510470028627
9	66498	16.7	29.529047913766
9	67129	16.8	29.547726147601
9	67760	16.9	29.566403930868
9	68391	17	29.585078828337
9	69022	17.1	29.60377044681
9	69653	17.2	29.622484454371
9	70284	17.3	29.641049442527
9	70915	17.4	29.65975030281
9	71546	17.5	29.678432145379
9	72177	17.6	29.697053836956
9	72808	17.7	29.71570835219
9	73439	17.8	29.734363270079
9	74070	17.9	29.752989112995
9	74701	18	29.771651142367
9	75332	18.1	29.790281435939
9	75963	18.2	29.808903561108
9	76594	18.3	29.827646979397
9	77225	18.4	29.846282006683
9	77856	18.5	29.864927006969
9	78487	18.6	29.883619679435
9	79118	18.7	29.902221177079
9	79749	18.8	29.920903310179
9	80380	18.9	29.939518042629
9	81011	19	29.958200731659
9	81642	19.1	29.976884262099
9	82273	19.2	29.995588879525
9	82904	19.3	30.014310767945
9	83535	19.4	30.033004933028
9	84166	19.5	30.051743782764
9	84797	19.6	30.070450046311
9	85428	19.7	30.089123742147
9	85942	19.8	30.107740869943
9	86456	19.9	30.12642063214
9	86970	20	30.145125400153
9	87484	20.1	30.163832487637
9	87998	20.2	30.182603975265
9	88512	20.3	30.201334642285
9	89026	20.4	30.219997323804
9	89540	20.5	30.238658941556
9	90054	20.6	30.257349258455
9	90568	20.7	30.276093234948
9	91082	20.8	30.29486515838
9	91596	20.9	30.313604555867
20	540	2.3	1.1776994461198
20	604	2.4	8.5255490012463
20	668	2.5	3.7651811145751
20	732	2.6	5.210354915627
20	796	2.7	1.99872214382
20	860	2.8	6.0120064678742
20	924	2.9	3.8307751757636
20	988	3	2.6061213852282
20	1052	3.1	6.2409075214147
20	1161	3.2	3.9602020279658
20	1270	3.3	6.2406039991477
20	1379	3.4	4.0136561115477
20	1488	3.5	6.0518986407426
20	1597	3.6	2.600703287337
20	1706	3.7	5.3788250908473
20	1815	3.8	4.8269237236337
20	1924	3.9	2.9966073416729
20	2033	4	3.6510515074307
20	2142	4.1	4.8601760614359
20	2308	4.2	0.973
20	2474	4.3	4.0663749254554
20	2640	4.4	6.2268302321739
20	2806	4.5	0.973
20	2972	4.6	6.1412410941553
20	3138	4.7	4.8820472284233
20	3304	4.8	6.8235903416575
20	3470	4.9	2.9185498500641
20	3636	5	4.446882891339
20	3802	5.1	6.6066770896287
20	4037	5.2	5.2569475147527
20	4272	5.3	0.973
20	4507	5.4	3.4991719010312
20	4742	5.5	4.4070128485145
20	4977	5.6	7.3162988877804
20	5212	5.7	5.186273770813
20	5447	5.8	0.973
20	5682	5.9	8.278482316715
20	5917	6	3.470542337777
20	6152	6.1	0.973
20	6468	6.2	12.36799242548
20	6784	6.3	0.973
20	7100	6.4	2.0063380978342
20	7416	6.5	4.8585823443918
20	7732	6.6	2.4620618531359
20	8048	6.7	8.237261860191
20	8364	6.8	0.973
20	8680	6.9	4.7049437609592
20	8996	7	2.6312218685333
20	9312	7.1	4.3620214095114
20	9721	7.2	8.3204074122993
20	10130	7.3	2.2927179957696
20	10539	7.4	2.876968156354
20	10948	7.5	4.0402909135842
20	11357	7.6	1.5292913065882
20	11766	7.7	0.973
20	12175	7.8	5.7176998915232
20	12584	7.9	0.973
20	12993	8	9.9645535987843
20	13402	8.1	2.8475803333907
20	13916	8.2	5.8089845224509
20	14430	8.3	1.6743875322408
20	14944	8.4	2.5423006463803
20	15458	8.5	2.4735559974745
20	15972	8.6	3.7555063276112
20	16486	8.7	5.6967099548681
20	17000	8.8	2.9520902477282
20	17514	8.9	1.2313650444872
20	18028	9	3.2271754828546
20	18542	9.1	0.74529189261932
20	19173	9.2	4.8858325964174
20	19804	9.3	7.2342958068299
20	20435	9.4	2.3268916043791
20	21066	9.5	4.4536185880793
20	21697	9.6	5.5309527957011
20	22328	9.7	0.973
20	22959	9.8	5.5795180280259
20	23590	9.9	3.9198379498573
20	24221	10	0.973
20	24852	10.1	8.0727125799561
20	25483	10.2	3.1136691759713
20	26114	10.3	0.973
20	26745	10.4	9.9243849969079
20	27376	10.5	2.1881098826949
20	28007	10.6	3.5064705167858
20	28638	10.7	4.5369858872551
20	29269	10.8	0.973
20	29900	10.9	6.3408482423887
20	30531	11	9.6577621098586
20	31162	11.1	0.973
20	31793	11.2	1.750529884279
20	32424	11.3	5.2475018081211
20	33055	11.4	5.8976623019524
20	33686	11.5	0.973
20	34317	11.6	8.9094082700772
20	34948	11.7	0.97592883285242
20	35579	11.8	3.553717037172
20	36210	11.9	3.2901091522609
20	36841	12	2.0613466445267
20	37472	12.1	3.360147383039
20	38103	12.2	3.0151809604774
20	38734	12.3	5.6943418862075
20	39365	12.4	0.973
20	39996	12.5	0.973
20	40627	12.6	9.3260126449304
20	41258	12.7	4.1876649919138
20	41889	12.8	3.1258212947994
20	42520	12.9	0.973
20	43151	13	11.196004096959
20	43782	13.1	0.973
20	44413	13.2	8.4222368729662
20	45044	13.3	0.973
20	45675	13.4	12.824678868901
20	46306	13.5	0.973
20	46937	13.6	1.8137608078551
20	47568	13.7	1.0331006757864
20	48199	13.8	2.9091498681428
20	48830	13.9	3.1925931030743
20	49461	14	3.7844376948928
20	50092	14.1	0.973
20	50723	14.2	10.047398099727
20	51354	14.3	2.744763953086
20	51985	14.4	1.4141510488186
20	52616	14.5	1.4322457099204
20	53247	14.6	7.476978511512
20	53878	14.7	0.64207333402667
20	54509	14.8	0.973
20	55140	14.9	5.4968828668765
20	55771	15	4.4270946572976
20	56402	15.1	2.2737965168213
20	57033	15.2	2.4557950716784
20	57664	15.3	0.973
20	58295	15.4	4.8822113680149
20	58926	15.5	1.2729125991112
20	59557	15.6	5.0341488652807
20	60188	15.7	4.0248817658683
20	60819	15.8	7.3568623325478
20	61450	15.9	1.3250088820311
20	62081	16	1.3624652328856
20	62712	16.1	1.894342371784
20	63343	16.2	4.7375972867487
20	63974	16.3	0.973
20	64605	16.4	8.9962266195201
20	65236	16.5	3.2179531481656
20	65867	16.6	0.973
20	66498	16.7	0.973
20	67129	16.8	8.597820705593
20	67760	16.9	4.9605408223919
20	68391	17	2.0070332849563
20	69022	17.1	1.8330743410754
20	69653	17.2	5.649310648815
20	70284	17.3	0.973
20	70915	17.4	11.97644288601
20	71546	17.5	0.973
20	72177	17.6	0.973
20	72808	17.7	4.8456269468494
20	73439	17.8	3.7128700525913
20	74070	17.9	4.2392696398079
20	74701	18	1.3748463335198
20	75332	18.1	4.2737437153514
20	75963	18.2	0.973
20	76594	18.3	8.111768114931
20	77225	18.4	0.973
20	77856	18.5	2.865819357454
20	78487	18.6	8.4538007423954
20	79118	18.7	0.973
20	79749	18.8	6.0593517510717
20	80380	18.9	0.973
20	81011	19	5.4878567414341
20	81642	19.1	7.6935165878771
20	82273	19.2	2.9885805379444
20	82904	19.3	0.973
20	83535	19.4	2.7949593688761
20	84166	19.5	8.9617069700201
20	84797	19.6	1.0652121624645
20	85428	19.7	0.973
20	85942	19.8	0.973
20	86456	19.9	3.2179649628129
20	86970	20	9.568611411215
20	87484	20.1	0.973
20	87998	20.2	5.1222571771586
20	88512	20.3	0.973
20	89026	20.4	5.5157722262003
20	89540	20.5	1.7002624923885
20	90054	20.6	3.9243462917742
20	90568	20.7	1.7881480531578
20	91082	20.8	3.2389374978552
20	91596	20.9	6.7619512150033
20	92110	21	3.138000493135
20	92519	21.1	4.6309323623619
20	92928	21.2	0.973
20	93337	21.3	6.2299143623333
20	93746	21.4	2.8889522920022
20	94155	21.5	3.5184875172562
20	94564	21.6	0.973
20	94973	21.7	5.3676636672016
20	95382	21.8	1.159225457633
20	95791	21.9	6.5632219194875
20	96200	22	0.86255758383251
20	96609	22.1	2.9006595258439
20	97018	22.2	4.2347827541556
20	97427	22.3	0.99428341454051
19	540	2.3	-0.29719376948169
19	604	2.4	1.4587340288267
19	668	2.5	0.31821384681411
19	732	2.6	0.65876521055582
19	796	2.7	-0.10505603048305
19	860	2.8	0.84358132524272
19	924	2.9	0.32519466690882
19	988	3	0.035480639498573
19	1052	3.1	0.88752669019005
19	1161	3.2	0.34923116402979
19	1270	3.3	0.87745565490085
19	1379	3.4	0.35538218648462
19	1488	3.5	0.82414501140796
19	1597	3.6	0.023157517348551
19	1706	3.7	0.66321538483482
19	1815	3.8	0.53235202884526
19	1924	3.9	0.11005271274584
19	2033	4	0.25960655028364
19	2142	4.1	0.53444613315424
19	2308	4.2	-0.44526308018682
19	2474	4.3	0.3528665604389
19	2640	4.4	0.84199720113549
19	2806	4.5	-0.71003052365015
19	2972	4.6	0.82158815446764
19	3138	4.7	0.53091840979739
19	3304	4.8	0.96460549997531
19	3470	4.9	0.080228961841833
19	3636	5	0.42374826268752
19	3802	5.1	0.90402421054073
19	4037	5.2	0.59693255498551
19	4272	5.3	-1.0765538446551
19	4507	5.4	0.2070407040733
19	4742	5.5	0.40908566362059
19	4977	5.6	1.0528434443309
19	5212	5.7	0.57373430492504
19	5447	5.8	-0.49475289896616
19	5682	5.9	1.2543301576186
19	5917	6	0.18789255928105
19	6152	6.1	-1.4913360463761
19	6468	6.2	2.1483132611029
19	6784	6.3	-0.84142850231295
19	7100	6.4	-0.13551302828713
19	7416	6.5	0.49421108624209
19	7732	6.6	-0.035825241748881
19	8048	6.7	1.2299276566299
19	8364	6.8	-1.0010042182372
19	8680	6.9	0.45654343065788
19	8996	7	-0.0006085530484512
19	9312	7.1	0.37896117659592
19	9721	7.2	1.2377024341457
19	10130	7.3	-0.079571310245399
19	10539	7.4	0.0480166970695
19	10948	7.5	0.30087939904824
19	11357	7.6	-0.24670477842935
19	11766	7.7	-0.53325524597891
19	12175	7.8	0.66775586564592
19	12584	7.9	-0.51452136964539
19	12993	8	1.5828679173061
19	13402	8.1	0.037130245628276
19	13916	8.2	0.67555490046203
19	14430	8.3	-0.21856796503172
19	14944	8.4	-0.030473299961855
19	15458	8.5	-0.045230414012281
19	15972	8.6	0.23153299761557
19	16486	8.7	0.64738547690794
19	17000	8.8	0.055154609603179
19	17514	8.9	-0.31540483321614
19	18028	9	0.11524613620413
19	18542	9.1	-0.4200732429025
19	19173	9.2	0.47299879390003
19	19804	9.3	0.97174073097616
19	20435	9.4	-0.081773682306263
19	21066	9.5	0.37314477509486
19	21697	9.6	0.60030485104253
19	22328	9.7	-1.0313017113035
19	22959	9.8	0.61336755475626
19	23590	9.9	0.25668510051695
19	24221	10	-0.75751881520784
19	24852	10.1	1.1415417824826
19	25483	10.2	0.082508731715158
19	26114	10.3	-1.4710301897755
19	26745	10.4	1.5352256414265
19	27376	10.5	-0.11487373504124
19	28007	10.6	0.16585956123691
19	28638	10.7	0.38363422211805
19	29269	10.8	-1.008242358014
19	29900	10.9	0.76932362952196
19	30531	11	1.4604699152551
19	31162	11.1	-1.3823207092592
19	31793	11.2	-0.20867433247545
19	32424	11.3	0.53388496217554
19	33055	11.4	0.66768693774318
19	33686	11.5	-0.97033277845551
19	34317	11.6	1.3027343725833
19	34948	11.7	-0.37543131276831
19	35579	11.8	0.17035271961447
19	36210	11.9	0.11407640818618
19	36841	12	-0.14567423789547
19	37472	12.1	0.12896864752776
19	38103	12.2	0.055737342629563
19	38734	12.3	0.61879710565307
19	39365	12.4	-1.2134376600885
19	39996	12.5	-0.52311024176621
19	40627	12.6	1.3886176370611
19	41258	12.7	0.30113751488944
19	41889	12.8	0.076770427881634
19	42520	12.9	-1.0358326422967
19	43151	13	1.770167017935
19	43782	13.1	-1.8801806413298
19	44413	13.2	1.1936123455969
19	45044	13.3	-0.68900321679052
19	45675	13.4	2.1023293352653
19	46306	13.5	-0.89964145952571
19	46937	13.6	-0.20082709139661
19	47568	13.7	-0.36468698202498
19	48199	13.8	0.030970709283267
19	48830	13.9	0.0904172005243
19	49461	14	0.21425686579047
19	50092	14.1	-0.98017758073741
19	50723	14.2	1.5271779617712
19	51354	14.3	-0.0064546318357372
19	51985	14.4	-0.28538642116384
19	52616	14.5	-0.28105919470384
19	53247	14.6	0.98395508840451
19	53878	14.7	-0.44803196001926
19	54509	14.8	-0.58028333903199
19	55140	14.9	0.57178814627001
19	55771	15	0.34532677238737
19	56402	15.1	-0.10591883114028
19	57033	15.2	-0.067535282259392
19	57664	15.3	-0.56146589586138
19	58295	15.4	0.44237733163282
19	58926	15.5	-0.31506548648302
19	59557	15.6	0.47338540365335
19	60188	15.7	0.26040354046831
19	60819	15.8	0.95095541678457
19	61450	15.9	-0.30651286829592
19	62081	16	-0.29815592182871
19	62712	16.1	-0.18645157772035
19	63343	16.2	0.40673123672253
19	63974	16.3	-1.0604745690772
19	64605	16.4	1.2943364340484
19	65236	16.5	0.08797729983435
19	65867	16.6	-0.75765613859733
19	66498	16.7	-0.63033576788921
19	67129	16.8	1.2120081472041
19	67760	16.9	0.45000270641427
19	68391	17	-0.16492081843847
19	69022	17.1	-0.20073492316023
19	69653	17.2	0.59208031386486
19	70284	17.3	-1.6678759948043
19	70915	17.4	1.9057124253151
19	71546	17.5	-0.89433105824718
19	72177	17.6	-0.58508074461979
19	72808	17.7	0.42925123304286
19	73439	17.8	0.19174107520662
19	74070	17.9	0.30018516721089
19	74701	18	-0.29633275288518
19	75332	18.1	0.30731769236329
19	75963	18.2	-0.64001698070207
19	76594	18.3	1.1031654110937
19	77225	18.4	-0.80244635471939
19	77856	18.5	0.014961977081285
19	78487	18.6	1.1707737775731
19	79118	18.7	-1.5091437080909
19	79749	18.8	0.67937235024395
19	80380	18.9	-0.8588988988225
19	81011	19	0.56208303778284
19	81642	19.1	1.0139249992773
19	82273	19.2	0.036768848052127
19	82904	19.3	-0.7521204665132
19	83535	19.4	-0.00095631221505244
19	84166	19.5	1.2719043493779
19	84797	19.6	-0.3627966653583
19	85428	19.7	-0.58536212620538
19	85942	19.8	-0.73659935634822
19	86456	19.9	0.088413012195829
19	86970	20	1.3996084217543
19	87484	20.1	-0.71712717207248
19	87998	20.2	0.47928694943149
19	88512	20.3	-0.60543146440203
19	89026	20.4	0.56122486938115
19	89540	20.5	-0.23030618961684
19	90054	20.6	0.23087347646278
19	90568	20.7	-0.21208384819577
19	91082	20.8	0.089057062921292
19	91596	20.9	0.81479491539682
19	92110	21	0.064894700938751
19	92519	21.1	0.3717099090159
19	92928	21.2	-1.0329413621919
19	93337	21.3	0.70400188302155
19	93746	21.4	0.013203560677333
19	94155	21.5	0.14277953449639
19	94564	21.6	-0.80395312381444
19	94973	21.7	0.52644924910275
19	95382	21.8	-0.34363958218602
19	95791	21.9	0.77072966434063
19	96200	22	-0.40558670347092
19	96609	22.1	0.015953030460523
19	97018	22.2	0.29052076879889
19	97427	22.3	-0.37823664725291
18	476	2.2	17.226885015015
18	540	2.3	17.197165638067
18	604	2.4	17.343039040949
18	668	2.5	17.374860425631
18	732	2.6	17.440736946686
18	796	2.7	17.430231343638
18	860	2.8	17.514589476162
18	924	2.9	17.547108942853
18	988	3	17.550657006803
18	1052	3.1	17.639409675822
18	1161	3.2	17.674332792225
18	1270	3.3	17.762078357715
18	1379	3.4	17.797616576364
18	1488	3.5	17.880031077504
18	1597	3.6	17.882346829239
18	1706	3.7	17.948668367723
18	1815	3.8	18.001903570607
18	1924	3.9	18.012908841882
18	2033	4	18.03886949691
18	2142	4.1	18.092314110226
18	2308	4.2	18.047787802207
18	2474	4.3	18.083074458251
18	2640	4.4	18.167274178364
18	2806	4.5	18.096271125999
18	2972	4.6	18.178429941446
18	3138	4.7	18.231521782426
18	3304	4.8	18.327982332423
18	3470	4.9	18.336005228608
18	3636	5	18.378380054876
18	3802	5.1	18.46878247593
18	4037	5.2	18.528475731429
18	4272	5.3	18.420820346963
18	4507	5.4	18.441524417371
18	4742	5.5	18.482432983733
18	4977	5.6	18.587717328166
18	5212	5.7	18.645090758658
18	5447	5.8	18.595615468762
18	5682	5.9	18.721048484524
18	5917	6	18.739837740452
18	6152	6.1	18.590704135814
18	6468	6.2	18.805535461924
18	6784	6.3	18.721392611693
18	7100	6.4	18.707841308864
18	7416	6.5	18.757262417489
18	7732	6.6	18.753679893314
18	8048	6.7	18.876672658977
18	8364	6.8	18.776572237153
18	8680	6.9	18.822226580219
18	8996	7	18.822165724914
18	9312	7.1	18.860061842574
18	9721	7.2	18.983832085988
18	10130	7.3	18.975874954964
18	10539	7.4	18.980676624671
18	10948	7.5	19.010764564575
18	11357	7.6	18.986094086732
18	11766	7.7	18.932768562135
18	12175	7.8	18.999544148699
18	12584	7.9	18.948092011735
18	12993	8	19.106378803465
18	13402	8.1	19.110091828028
18	13916	8.2	19.177647318074
18	14430	8.3	19.155790521571
18	14944	8.4	19.152743191575
18	15458	8.5	19.148220150174
18	15972	8.6	19.171373449935
18	16486	8.7	19.236111997626
18	17000	8.8	19.241627458586
18	17514	8.9	19.210086975265
18	18028	9	19.221611588885
18	18542	9.1	19.179604264595
18	19173	9.2	19.226904143985
18	19804	9.3	19.324078217082
18	20435	9.4	19.315900848852
18	21066	9.5	19.353215326361
18	21697	9.6	19.413245811466
18	22328	9.7	19.310115640335
18	22959	9.8	19.371452395811
18	23590	9.9	19.397120905863
18	24221	10	19.321369024342
18	24852	10.1	19.43552320259
18	25483	10.2	19.443774075762
18	26114	10.3	19.296671056784
18	26745	10.4	19.450193620927
18	27376	10.5	19.438706247422
18	28007	10.6	19.455292203546
18	28638	10.7	19.493655625758
18	29269	10.8	19.392831389957
18	29900	10.9	19.469763752909
18	30531	11	19.615810744434
18	31162	11.1	19.477578673508
18	31793	11.2	19.456711240261
18	32424	11.3	19.510099736478
18	33055	11.4	19.576868430253
18	33686	11.5	19.479835152407
18	34317	11.6	19.610108589665
18	34948	11.7	19.572565458389
18	35579	11.8	19.58960073035
18	36210	11.9	19.601008371169
18	36841	12	19.586440947379
18	37472	12.1	19.599337812132
18	38103	12.2	19.604911546395
18	38734	12.3	19.66679125696
18	39365	12.4	19.545447490951
18	39996	12.5	19.493136466775
18	40627	12.6	19.631998230481
18	41258	12.7	19.66211198197
18	41889	12.8	19.669789024758
18	42520	12.9	19.566205760528
18	43151	13	19.743222462322
18	43782	13.1	19.555204398189
18	44413	13.2	19.674565632748
18	45044	13.3	19.605665311069
18	45675	13.4	19.815898244596
18	46306	13.5	19.725934098643
18	46937	13.6	19.705851389504
18	47568	13.7	19.669382691301
18	48199	13.8	19.67247976223
18	48830	13.9	19.681521482282
18	49461	14	19.702947168861
18	50092	14.1	19.604929410787
18	50723	14.2	19.757647206964
18	51354	14.3	19.757001743781
18	51985	14.4	19.728463101664
18	52616	14.5	19.700357182194
18	53247	14.6	19.798752691035
18	53878	14.7	19.753949495033
18	54509	14.8	19.695921161129
18	55140	14.9	19.753099975756
18	55771	15	19.787632652995
18	56402	15.1	19.777040769881
18	57033	15.2	19.770287241655
18	57664	15.3	19.714140652069
18	58295	15.4	19.758378385232
18	58926	15.5	19.726871836584
18	59557	15.6	19.774210376949
18	60188	15.7	19.800250730996
18	60819	15.8	19.895346272675
18	61450	15.9	19.864694985845
18	62081	16	19.834879393662
18	62712	16.1	19.81623423589
18	63343	16.2	19.856907359562
18	63974	16.3	19.750859902655
18	64605	16.4	19.88029354606
18	65236	16.5	19.889091276043
18	65867	16.6	19.813325662183
18	66498	16.7	19.750292085394
18	67129	16.8	19.871492900115
18	67760	16.9	19.916493170756
18	68391	17	19.900001088912
18	69022	17.1	19.879927596596
18	69653	17.2	19.939135627983
18	70284	17.3	19.772348028502
18	70915	17.4	19.962919271034
18	71546	17.5	19.873486165209
18	72177	17.6	19.814978090747
18	72808	17.7	19.857903214051
18	73439	17.8	19.877077321572
18	74070	17.9	19.907095838293
18	74701	18	19.877462563005
18	75332	18.1	19.908194332241
18	75963	18.2	19.844192634171
18	76594	18.3	19.95450917528
18	77225	18.4	19.874264539808
18	77856	18.5	19.875760737516
18	78487	18.6	19.992838115274
18	79118	18.7	19.841923744465
18	79749	18.8	19.909860979489
18	80380	18.9	19.823971089607
18	81011	19	19.880179393385
18	81642	19.1	19.981571893313
18	82273	19.2	19.985248778118
18	82904	19.3	19.910036731467
18	83535	19.4	19.909941100245
18	84166	19.5	20.037131535183
18	84797	19.6	20.000851868647
18	85428	19.7	19.942315656027
18	85942	19.8	19.868655720392
18	86456	19.9	19.877497021611
18	86970	20	20.017457863787
18	87484	20.1	19.945745146579
18	87998	20.2	19.993673841523
18	88512	20.3	19.933130695082
18	89026	20.4	19.989253182021
18	89540	20.5	19.966222563059
18	90054	20.6	19.989309910705
18	90568	20.7	19.968101525886
18	91082	20.8	19.977007232178
18	91596	20.9	20.058486723717
18	92110	21	20.064976193811
18	92519	21.1	20.102147184713
18	92928	21.2	19.998853048494
18	93337	21.3	20.069253236796
18	93746	21.4	20.070573592864
18	94155	21.5	20.084851546313
18	94564	21.6	20.004456233932
18	94973	21.7	20.057101158842
18	95382	21.8	20.022737200623
18	95791	21.9	20.099810167057
18	96200	22	20.05925149671
18	96609	22.1	20.060846799756
18	97018	22.2	20.089898876636
18	97427	22.3	20.052075211911
17	412	2.1	416.34012864494
17	476	2.2	416.34012864494
17	540	2.3	414.61748359739
17	604	2.4	412.89781041257
17	668	2.5	411.16355025542
17	732	2.6	409.42610804007
17	796	2.7	407.68207833879
17	860	2.8	405.93909917131
17	924	2.9	404.18768440336
17	988	3	402.43301777078
17	1052	3.1	400.67799634075
17	1161	3.2	398.91409986769
17	1270	3.3	397.14671117109
17	1379	3.4	395.37054813927
17	1488	3.5	393.59083137523
17	1597	3.6	391.80287336896
17	1706	3.7	390.01468379336
17	1815	3.8	388.2198622312
17	1924	3.9	386.41971728304
17	2033	4	384.61847183551
17	2142	4.1	382.81463038796
17	2308	4.2	381.00544461389
17	2474	4.3	379.20071135831
17	2640	4.4	377.39244952613
17	2806	4.5	375.57576793433
17	2972	4.6	373.76618646867
17	3138	4.7	371.9483893287
17	3304	4.8	370.12528313855
17	3470	4.9	368.29253113673
17	3636	5	366.45897686552
17	3802	5.1	364.62118521857
17	4037	5.2	362.77435355756
17	4272	5.3	360.92155272156
17	4507	5.4	359.07951715246
17	4742	5.5	357.23541122854
17	4977	5.6	355.38721455118
17	5212	5.7	353.52848970495
17	5447	5.8	351.66402766039
17	5682	5.9	349.80451302002
17	5917	6	347.93245539447
17	6152	6.1	346.05851889073
17	6468	6.2	344.19949537126
17	6784	6.3	342.31898926109
17	7100	6.4	340.44689722369
17	7416	6.5	338.5761602824
17	7732	6.6	336.7004813549
17	8048	6.7	334.82516067079
17	8364	6.8	332.93754102035
17	8680	6.9	331.05993115959
17	8996	7	329.17775597969
17	9312	7.1	327.29558688517
17	9721	7.2	325.40962827447
17	10130	7.3	323.51129295164
17	10539	7.4	321.61375332183
17	10948	7.5	319.71573353717
17	11357	7.6	317.81470503441
17	11766	7.7	315.91614351721
17	12175	7.8	314.02291441795
17	12584	7.9	312.12300792848
17	12993	8	310.22824652292
17	13402	8.1	308.31765683745
17	13916	8.2	306.4066958589
17	14430	8.3	304.48897950174
17	14944	8.4	302.5734487691
17	15458	8.5	300.65822276178
17	15972	8.6	298.74344904719
17	16486	8.7	296.82636006102
17	17000	8.8	294.90279738338
17	17514	8.9	292.97868317356
17	18028	9	291.05772293252
17	18542	9.1	289.13561025918
17	19173	9.2	287.21769821231
17	19804	9.3	285.29505629681
17	20435	9.4	283.36269721912
17	21066	9.5	281.43115585763
17	21697	9.6	279.4958831425
[...]
68	92928	21.2	-0.58755354566966
68	93337	21.3	-0.056162013066938
68	93746	21.4	0.99976022976918
68	94155	21.5	-0.8083384240512
68	94564	21.6	0.67622707437259
68	94973	21.7	-0.41487266388721
68	95382	21.8	0.48333747969007
68	95791	21.9	-0.64125893109011
68	96200	22	-0.024573234165999
68	96609	22.1	0.52894340632481
68	97018	22.2	-0.34104492103214
68	97427	22.3	0.50528135439382
68	97836	22.4	-0.6417437388329
68	98152	22.5	-0.35803636126218
68	98468	22.6	0.18426528936249
68	98784	22.7	-0.087518279976209
68	99100	22.8	0.99422821274494
68	99416	22.9	-0.97414740780369
68	99732	23	0.69792104570659
68	100048	23.1	0.15037642398386
68	100364	23.2	-0.52118060288485
68	100680	23.3	0.15788115079047
68	100996	23.4	-0.51282196692192
68	101312	23.5	0.2007702002069
68	101628	23.6	-0.14771072508299
68	101944	23.7	-0.28010188592599
68	102179	23.8	0.13975057136268
68	102345	23.9	0.87162146880292
68	102511	24	-0.68876097497995
68	102677	24.1	0.57073295912705
68	102843	24.2	-0.22449451065622
68	103009	24.3	0.21511277658863
68	103175	24.4	-0.74681524764745
68	103341	24.5	0.31047222078779
68	103507	24.6	0.23639469442422
68	103673	24.7	0.40937021868302
68	103839	24.8	-0.064456622861329
68	104005	24.9	-0.78150758573319
68	104171	25	-0.21991120090242
68	104337	25.1	1.0238355767913
68	104503	25.2	-0.42896998757495
68	104612	25.3	-0.54429455036296
68	104721	25.4	0.46969704001675
68	104830	25.5	-0.55492108946201
68	104939	25.6	0.29697377488482
68	105048	25.7	0.88140992859845
68	105157	25.8	-0.38755978643895
68	105266	25.9	0.16873643079308
68	105375	26	0.12046629989054
68	105484	26.1	-1.0490654382389
68	105593	26.2	1.2159231982427
68	105702	26.3	-0.76340968695003
68	105811	26.4	0.72017030469141
68	105920	26.5	-0.69730897955594
68	105984	26.6	0.15826231974643
68	106048	26.7	-0.11202661020217
68	106079	26.8	0.55837904799265
68	106110	26.9	-0.30151384773198
68	106141	27	0.055721488292306
68	106172	27.1	-0.89067173395303
68	106203	27.2	0.74448626916855
68	106234	27.3	-0.27729910151102
68	106265	27.4	0.36896847472526
68	106296	27.5	-0.64301350889728
68	106327	27.6	0.45917528686115
68	106358	27.7	-0.039379795733829
68	106389	27.8	-0.45395810015034
68	106420	27.9	0.85026995034422
68	106430	28	-0.26544336113147
68	106440	28.1	0.047584866476242
68	106450	28.2	-0.38978182056454
68	106460	28.3	-0.35156393039507
68	106470	28.4	0.43486047589688
68	106480	28.5	0.76021906947716
68	106490	28.6	-0.83488736543803
67	19173	9.2	20.04495983135
67	19804	9.3	20.089608544109
67	20435	9.4	20.04624203423
67	21066	9.5	19.991790785822
67	21697	9.6	20.117720623179
67	22328	9.7	20.042760742444
67	22959	9.8	20.064617691978
67	23590	9.9	20.01053263502
67	24221	10	20.073806238007
67	24852	10.1	20.066773373568
67	25483	10.2	20.095283099909
67	26114	10.3	19.997807599874
67	26745	10.4	20.078474725166
67	27376	10.5	20.100306397635
67	28007	10.6	20.077515380394
67	28638	10.7	20.067964679152
67	29269	10.8	20.104968274992
67	29900	10.9	20.020652850894
67	30531	11	20.110618235422
67	31162	11.1	20.009730576978
67	31793	11.2	20.024512506702
67	32424	11.3	20.082730685466
67	33055	11.4	20.082653822978
67	33686	11.5	20.087030371651
67	34317	11.6	20.071152198727
67	34948	11.7	19.992273456948
67	35579	11.8	20.009087453969
67	36210	11.9	20.002098434733
67	36841	12	20.015545519833
67	37472	12.1	20.036777887919
67	38103	12.2	20.07976617316
67	38734	12.3	20.082547121344
67	39365	12.4	20.050436444948
67	39996	12.5	20.015777168339
67	40627	12.6	20.11845022772
67	41258	12.7	20.105975050996
67	41889	12.8	20.07659266748
67	42520	12.9	20.031510425452
67	43151	13	20.06845958614
67	43782	13.1	20.097994436664
67	44413	13.2	20.109232941333
67	45044	13.3	20.022822155741
67	45675	13.4	20.075329364382
67	46306	13.5	20.094728141876
67	46937	13.6	20.097118247305
67	47568	13.7	20.001419805412
67	48199	13.8	19.996577805553
67	48830	13.9	19.992084457604
67	49461	14	20.082203107821
67	50092	14.1	20.002543998491
67	50723	14.2	20.059870235559
67	51354	14.3	20.01529949252
67	51985	14.4	20.099801687088
67	52616	14.5	20.090370725202
67	53247	14.6	20.034343121536
67	53878	14.7	20.001858826019
67	54509	14.8	20.036947618362
67	55140	14.9	20.111563083585
67	55771	15	20.032265507069
67	56402	15.1	20.119039417419
67	57033	15.2	20.111017351174
67	57664	15.3	20.011271041883
67	58295	15.4	20.119882132234
67	58926	15.5	20.102297347086
67	59557	15.6	20.042050537653
67	60188	15.7	20.109871768407
67	60819	15.8	19.998059473236
67	61450	15.9	20.038334854324
67	62081	16	20.020125914325
67	62712	16.1	20.100979491214
67	63343	16.2	20.010108221348
67	63974	16.3	19.992860496985
67	64605	16.4	20.069457343919
67	65236	16.5	20.11465008016
67	65867	16.6	20.030694741521
67	66498	16.7	20.109338411696
67	67129	16.8	20.108780556654
67	67760	16.9	20.073446635534
67	68391	17	20.058776841213
67	69022	17.1	20.08395132584
67	69653	17.2	20.001998648939
67	70284	17.3	20.118102914321
67	70915	17.4	20.117854538001
67	71546	17.5	20.049927259614
67	72177	17.6	20.110615605831
67	72808	17.7	20.007661430857
67	73439	17.8	20.041729316255
67	74070	17.9	20.021314392183
67	74701	18	20.075394765444
67	75332	18.1	20.011503817812
67	75963	18.2	20.04204647796
67	76594	18.3	20.050513361434
67	77225	18.4	20.040297984411
67	77856	18.5	20.111658343892
67	78487	18.6	20.03578004769
67	79118	18.7	20.088228194294
67	79749	18.8	20.084131528763
67	80380	18.9	20.012259518681
67	81011	19	20.052585260731
67	81642	19.1	20.02051710716
67	82273	19.2	20.110298130519
67	82904	19.3	20.072598184058
67	83535	19.4	20.077019171005
67	84166	19.5	20.110591913022
67	84797	19.6	20.07152395779
67	85428	19.7	20.093103227541
67	85942	19.8	20.012154285952
67	86456	19.9	20.000877120593
67	86970	20	20.01991492735
67	87484	20.1	20.02673991052
67	87998	20.2	20.093261972007
67	88512	20.3	20.047194497485
67	89026	20.4	20.029104802294
67	89540	20.5	20.080809783817
67	90054	20.6	19.999027014486
67	90568	20.7	20.057088977038
67	91082	20.8	20.016320831056
67	91596	20.9	20.052398542534
67	92110	21	20.026045156869
67	92519	21.1	20.076179298111
67	92928	21.2	20.017423943544
67	93337	21.3	20.011807742238
67	93746	21.4	20.111783765214
67	94155	21.5	20.030949922809
67	94564	21.6	20.098572630247
67	94973	21.7	20.057085363858
67	95382	21.8	20.105419111827
67	95791	21.9	20.041293218718
67	96200	22	20.038835895301
67	96609	22.1	20.091730235934
67	97018	22.2	20.057625743831
67	97427	22.3	20.10815387927
67	97836	22.4	20.043979505387
67	98152	22.5	20.00817586926
67	98468	22.6	20.026602398197
67	98784	22.7	20.017850570199
67	99100	22.8	20.117273391474
67	99416	22.9	20.019858650693
67	99732	23	20.089650755264
67	100048	23.1	20.104688397662
67	100364	23.2	20.052570337374
67	100680	23.3	20.068358452453
67	100996	23.4	20.017076255761
67	101312	23.5	20.037153275781
67	101628	23.6	20.022382203273
67	101944	23.7	19.99437201468
67	102179	23.8	20.008347071817
67	102345	23.9	20.095509218697
67	102511	24	20.026633121199
67	102677	24.1	20.083706417112
67	102843	24.2	20.061256966046
67	103009	24.3	20.082768243705
67	103175	24.4	20.00808671894
67	103341	24.5	20.039133941019
67	103507	24.6	20.062773410461
67	103673	24.7	20.10371043233
67	103839	24.8	20.097264770044
67	104005	24.9	20.01911401147
67	104171	25	19.99712289138
67	104337	25.1	20.099506449059
67	104503	25.2	20.056609450302
67	104612	25.3	20.002179995265
67	104721	25.4	20.049149699267
67	104830	25.5	19.993657590321
67	104939	25.6	20.023354967809
67	105048	25.7	20.111495960669
67	105157	25.8	20.072739982025
67	105266	25.9	20.089613625105
67	105375	26	20.101660255094
67	105484	26.1	19.99675371127
67	105593	26.2	20.118346031094
67	105702	26.3	20.042005062399
67	105811	26.4	20.114022092868
67	105920	26.5	20.044291194913
67	105984	26.6	20.060117426887
67	106048	26.7	20.048914765867
67	106079	26.8	20.104752670666
67	106110	26.9	20.074601285893
67	106141	27	20.080173434722
67	106172	27.1	19.991106261327
67	106203	27.2	20.065554888244
67	106234	27.3	20.037824978093
67	106265	27.4	20.074721825565
67	106296	27.5	20.010420474675
67	106327	27.6	20.056338003362
67	106358	27.7	20.052400023788
67	106389	27.8	20.007004213773
67	106420	27.9	20.092031208808
67	106430	28	20.065486872694
67	106440	28.1	20.070245359342
67	106450	28.2	20.031267177286
67	106460	28.3	19.996110784246
67	106470	28.4	20.039596831836
67	106480	28.5	20.115618738784
67	106490	28.6	20.03213000224
66	18542	9.1	416.30025728988
66	19173	9.2	416.30025728988
66	19804	9.3	414.29586243155
66	20435	9.4	412.2870029272
66	21066	9.5	410.28247985506
66	21697	9.6	408.28340163305
66	22328	9.7	406.27173106262
66	22959	9.8	404.26755610209
66	23590	9.9	402.26119555687
66	24221	10	400.2602432445
66	24852	10.1	398.25296389103
66	25483	10.2	396.24638778853
66	26114	10.3	394.23696085723
66	26745	10.4	392.23728098417
66	27376	10.5	390.22953480555
66	28007	10.6	388.21960556981
66	28638	10.7	386.21195532082
66	29269	10.8	384.20526009377
66	29900	10.9	382.19486469382
66	30531	11	380.19290041091
66	31162	11.1	378.18194004342
66	31793	11.2	376.18106793281
66	32424	11.3	374.17871770379
66	33055	11.4	372.1705459506
66	33686	11.5	370.16238188328
66	34317	11.6	368.15378018317
66	34948	11.7	366.14676622024
66	35579	11.8	364.14763973356
66	36210	11.9	362.146831932
66	36841	12	360.1467229971
66	37472	12.1	358.14526942154
66	38103	12.2	356.14169271628
66	38734	12.3	354.13381739937
66	39365	12.4	352.12566400167
66	39996	12.5	350.12072150961
66	40627	12.6	348.11924477036
66	41258	12.7	346.10750124315
66	41889	12.8	344.09700517068
66	42520	12.9	342.08944718833
66	43151	13	340.08639720274
66	43782	13.1	338.07965248749
66	44413	13.2	336.06995443619
66	45044	13.3	334.05913259112
66	45675	13.4	332.05695138867
66	46306	13.5	330.04951973025
66	46937	13.6	328.04014829195
66	47568	13.7	326.03053785516
66	48199	13.8	324.03049677978
66	48830	13.9	322.03093987995
66	49461	14	320.03183229225
66	50092	14.1	318.02371329417
66	50723	14.2	316.02355980514
66	51354	14.3	314.01767398162
66	51985	14.4	312.01624500754
66	52616	14.5	310.00636624032
66	53247	14.6	307.9974305217
66	53878	14.7	305.9940972808
66	54509	14.8	303.99401230556
66	55140	14.9	301.99041862812
66	55771	15	299.97936378057
66	56402	15.1	297.97623829064
66	57033	15.2	295.96443584743
66	57664	15.3	293.95343557037
66	58295	15.4	291.95240942104
66	58926	15.5	289.9405227106
66	59557	15.6	287.93039438996
66	60188	15.7	285.92629044633
66	60819	15.8	283.91540472178
66	61450	15.9	281.91569966265
66	62081	16	279.91196726861
66	62712	16.1	277.9100556767
66	63343	16.2	275.900059135
66	63974	16.3	273.89914926186
66	64605	16.4	271.89996407413
66	65236	16.5	269.89311958814
66	65867	16.6	267.88175605651
66	66498	16.7	265.8787876352
66	67129	16.8	263.86795524363
66	67760	16.9	261.85717863474
66	68391	17	259.84993523971
66	69022	17.1	257.84415875011
66	69653	17.2	255.83586493904
66	70284	17.3	253.83576598222
66	70915	17.4	251.8240571846
66	71546	17.5	249.81237322335
66	72177	17.6	247.80748164726
66	72808	17.7	245.79652154272
66	73439	17.8	243.79585633627
66	74070	17.9	241.79178451316
66	74701	18	239.78975407946
66	75332	18.1	237.78231588127
66	75963	18.2	235.78126645552
66	76594	18.3	233.77716291783
66	77225	18.4	231.77221273452
66	77856	18.5	229.76828403737
66	78487	18.6	227.75721966428
66	79118	18.7	225.75374273801
66	79749	18.8	223.74502126167
66	80380	18.9	221.73670943122
66	81011	19	219.73558443919
66	81642	19.1	217.7304270764
66	82273	19.2	215.72847636718
66	82904	19.3	213.71754800857
66	83535	19.4	211.7103894544
66	84166	19.5	209.70278882385
66	84797	19.6	207.69183108846
66	85428	19.7	205.68477995151
66	85942	19.8	203.67557099644
66	86456	19.9	201.67445652716
66	86970	20	199.67446971751
66	87484	20.1	197.67257922324
66	87998	20.2	195.67000626508
66	88512	20.3	193.66078143637
66	89026	20.4	191.6561631227
66	89540	20.5	189.6533536873
66	90054	20.6	187.64537401459
66	90568	20.7	185.64557220622
66	91082	20.8	183.63996449452
66	91596	20.9	181.63843339174
66	92110	21	179.63329469982
66	92519	21.1	177.63079121353
66	92928	21.2	175.62327456602
66	93337	21.3	173.62163315756
66	93746	21.4	171.6205533409
66	94155	21.5	169.60947642631
66	94564	21.6	167.60648248816
66	94973	21.7	165.59672662042
66	95382	21.8	163.59111927001
66	95791	21.9	161.58067878865
66	96200	22	159.57665057309
66	96609	22.1	157.57286807748
66	97018	22.2	155.56379641464
66	97427	22.3	153.55813502897
66	97836	22.4	151.54742108466
66	98152	22.5	149.54312425399
66	98468	22.6	147.5424076063
66	98784	22.7	145.53984839868
66	99100	22.8	143.5381643297
66	99416	22.9	141.52653848018
66	99732	23	139.52465361329
66	100048	23.1	137.51578988803
66	100364	23.2	135.5054224744
66	100680	23.3	133.50026660387
66	100996	23.4	131.49353200148
66	101312	23.5	129.49192536004
66	101628	23.6	127.48831111789
66	101944	23.7	125.48617390847
66	102179	23.8	123.4868375766
66	102345	23.9	121.48610380952
66	102511	24	119.47665426748
66	102677	24.1	117.47409198771
66	102843	24.2	115.46582266628
66	103009	24.3	113.45979817671
66	103175	24.4	111.45162266789
66	103341	24.5	109.45091493478
66	103507	24.6	107.4471026361
66	103673	24.7	105.44092650973
66	103839	24.8	103.4306568877
66	104005	24.9	101.42103179938
66	104171	25	99.41922139265
66	104337	25.1	97.419609986989
66	104503	25.2	95.409760742075
66	104612	25.3	93.404200980626
66	104721	25.4	91.40408389009
66	104830	25.5	89.399270066111
66	104939	25.6	87.400005173074
66	105048	25.7	85.397770692108
66	105157	25.8	83.38672255652
66	105266	25.9	81.379549823275
66	105375	26	79.370689810848
66	105484	26.1	77.360625196197
66	105593	26.2	75.361050706685
66	105702	26.3	73.349317598612
66	105811	26.4	71.345218202275
66	105920	26.5	69.33391746621
66	105984	26.6	67.329589468156
66	106048	26.7	65.323678926746
66	106079	26.8	63.318888594921
66	106110	26.9	61.308514754314
66	106141	27	59.301155900072
66	106172	27.1	57.293239859059
66	106203	27.2	55.294230086051
66	106234	27.3	53.287775825936
66	106265	27.4	51.284094416942
66	106296	27.5	49.276723509342
66	106327	27.6	47.275782412437
66	106358	27.7	45.270249794312
66	106389	27.8	43.265110954279
66	106420	27.9	41.264511466229
66	106430	28	39.255409707629
66	106440	28.1	37.248962248726
66	106450	28.2	35.242038965165
66	106460	28.3	33.239013303168
66	106470	28.4	31.239503103115
66	106480	28.5	29.235644517685
66	106490	28.6	27.224184125084
65	18542	9.1	23.397598627787
65	19173	9.2	23.397598627787
65	19804	9.3	23.416306717631
65	20435	9.4	23.435056478405
65	21066	9.5	23.453765764937
65	21697	9.6	23.472424231769
65	22328	9.7	23.491200229727
65	22959	9.8	23.509906267147
65	23590	9.9	23.528632703798
65	24221	10	23.547308662518
65	24852	10.1	23.566043674898
65	25483	10.2	23.584772123461
65	26114	10.3	23.603527180335
65	26745	10.4	23.622191262698
65	27376	10.5	23.640930632207
65	28007	10.6	23.659690377357
65	28638	10.7	23.678428851503
65	29269	10.8	23.697158411919
65	29900	10.9	23.715922508029
65	30531	11	23.734607912012
65	31162	11.1	23.753377281266
65	31793	11.2	23.77205249142
65	32424	11.3	23.790741497644
65	33055	11.4	23.809484839268
65	33686	11.5	23.828228109157
65	34317	11.6	23.846975463706
65	34948	11.7	23.865707999054
65	35579	11.8	23.884366916366
65	36210	11.9	23.903041526289
65	36841	12	23.921709613316
65	37472	12.1	23.940390250594
65	38103	12.2	23.959090704177
65	38734	12.3	23.977831279003
65	39365	12.4	23.996574449306
65	39996	12.5	24.015287650508
65	40627	12.6	24.033968503985
65	41258	12.7	24.052745182888
65	41889	12.8	24.071510218628
65	42520	12.9	24.090247831601
65	43151	13	24.108943369027
65	43782	13.1	24.127673391343
65	44413	13.2	24.146430978725
65	45044	13.3	24.165199055075
65	45675	13.4	24.183886483684
65	46306	13.5	24.202622917608
65	46937	13.6	24.221377456535
65	47568	13.7	24.240134226164
65	48199	13.8	24.258801679821
65	48830	13.9	24.277464614409
65	49461	14	24.296123355327
65	50092	14.1	24.31486620456
65	50723	14.2	24.333534707434
65	51354	14.3	24.352256713254
65	51985	14.4	24.370937120912
65	52616	14.5	24.389696395012
65	53247	14.6	24.408446867135
65	53878	14.7	24.427145048335
65	54509	14.8	24.445812911734
65	55140	14.9	24.464513523727
65	55771	15	24.483283774814
65	56402	15.1	24.501980016963
65	57033	15.2	24.520757245761
65	57664	15.3	24.539526987512
65	58295	15.4	24.558203635392
65	58926	15.5	24.576981650701
65	59557	15.6	24.595743254016
65	60188	15.7	24.614448628597
65	60819	15.8	24.633217301169
65	61450	15.9	24.651881618607
65	62081	16	24.670583525317
65	62712	16.1	24.689268437506
65	63343	16.2	24.708028810858
65	63974	16.3	24.72670437347
65	64605	16.4	24.74536383867
65	65236	16.5	24.7640947922
65	65867	16.6	24.782867924401
65	66498	16.7	24.801562700544
65	67129	16.8	24.820330875331
65	67760	16.9	24.839098529467
65	68391	17	24.857833206228
65	69022	17.1	24.876554191576
65	69653	17.2	24.895298672432
65	70284	17.3	24.913966666328
65	70915	17.4	24.932743021081
65	71546	17.5	24.951519144023
65	72177	17.6	24.970231869999
65	72808	17.7	24.989001236799
65	73439	17.8	25.007674515806
65	74070	17.9	25.026379590589
65	74701	18	25.045065611992
65	75332	18.1	25.063802106955
65	75963	18.2	25.082478972087
65	76594	18.3	25.101184342879
65	77225	18.4	25.119897615868
65	77856	18.5	25.13860135478
65	78487	18.6	25.157371694774
65	79118	18.7	25.176071217066
65	79749	18.8	25.194819689551
65	80380	18.9	25.213564338592
65	81011	19	25.232241909023
65	81642	19.1	25.250957115729
65	82273	19.2	25.269642393021
65	82904	19.3	25.288411463519
65	83535	19.4	25.307145348415
65	84166	19.5	25.325883359446
65	84797	19.6	25.344652704134
65	85428	19.7	25.363385586447
65	85942	19.8	25.382138608832
65	86456	19.9	25.400816081049
65	86970	20	25.419483028216
65	87484	20.1	25.438167743489
65	87998	20.2	25.456858828564
65	88512	20.3	25.475611999106
65	89026	20.4	25.494322174577
65	89540	20.5	25.513015466821
65	90054	20.6	25.531757015655
65	90568	20.7	25.550422236106
65	91082	20.8	25.569141646159
65	91596	20.9	25.587823007039
65	92110	21	25.60653803948
65	92519	21.1	25.625228476136
65	92928	21.2	25.643965703309
65	93337	21.3	25.662648093731
65	93746	21.4	25.681325242517
65	94155	21.5	25.700095699568
65	94564	21.6	25.718790713874
65	94973	21.7	25.737548840887
65	95382	21.8	25.756268247568
65	95791	21.9	25.775032764447
65	96200	22	25.793737432217
65	96609	22.1	25.812439806552
65	97018	22.2	25.831191547515
65	97427	22.3	25.849911458536
65	97836	22.4	25.868678527791
65	98152	22.5	25.88738570269
65	98468	22.6	25.906059461825
65	98784	22.7	25.924750418558
65	99100	22.8	25.943433207154
65	99416	22.9	25.962208787708
65	99732	23	25.980893450459
65	100048	23.1	25.999643250629
65	100364	23.2	26.018407085527
65	100680	23.3	26.037122278305
65	100996	23.4	26.055852206232
65	101312	23.5	26.074534272155
65	101628	23.6	26.093235076091
65	101944	23.7	26.111922094089
65	102179	23.8	26.130582969998
65	102345	23.9	26.149256888918
65	102511	24	26.168012156829
65	102677	24.1	26.186703142237
65	102843	24.2	26.205447394518
65	103009	24.3	26.224170694582
65	103175	24.4	26.24291407126
65	103341	24.5	26.261587747191
65	103507	24.6	26.280290399693
65	103673	24.7	26.299015115065
65	103839	24.8	26.317778037222
65	104005	24.9	26.336534943601
65	104171	25	26.355218911375
65	104337	25.1	26.373882354695
65	104503	25.2	26.392641353247
65	104612	25.3	26.411360315755
65	104721	25.4	26.430028478903
65	104830	25.5	26.448740479177
65	104939	25.6	26.467400688309
65	105048	25.7	26.486088614195
65	105157	25.8	26.504858802636
65	105266	25.9	26.523592819873
65	105375	26	26.542342585389
65	105484	26.1	26.561103594102
65	105593	26.2	26.579766692864
65	105702	26.3	26.59854327452
65	105811	26.4	26.617248606659
65	105920	26.5	26.636021152755
65	105984	26.6	26.654728618556
65	106048	26.7	26.673450855081
65	106079	26.8	26.69216263609
65	106110	26.9	26.710926530975
65	106141	27	26.729662285378
65	106172	27.1	26.748403240304
65	106203	27.2	26.767061068265
65	106234	27.3	26.785788379608
65	106265	27.4	26.804489810447
65	106296	27.5	26.823225677351
65	106327	27.6	26.841901531391
65	106358	27.7	26.860620240556
65	106389	27.8	26.879335274379
65	106420	27.9	26.89800794
65	106430	28	26.916759961863
65	106440	28.1	26.935487209726
65	106450	28.2	26.954218898716
65	106460	28.3	26.972914209117
65	106470	28.4	26.991576707831
65	106480	28.5	27.010279792353
65	106490	28.6	27.029053828609
