version 2
run General-1-20161209-17:50:48-31844
attr configname General
attr datetime 20161209-17:50:48
attr experiment General
attr inifile omnetpp.ini
attr iterationvars ""
attr iterationvars2 $repetition=1
attr measurement ""
attr network com.liborio.locvanet.LocScenario
attr processid 31844
attr repetition 1
attr replication #1
attr resultdir results
attr runnumber 1
attr seedset 1
param **.coreDebug false
param **.debug false
param *.**.nic.mac1609_4.bitrate 18Mbps
param *.**.nic.mac1609_4.txPower 20mW
param *.**.nic.mac1609_4.useServiceChannel false
param *.**.nic.phy80211p.analogueModels "xmldoc(\"config_trgi.xml\")"
param *.**.nic.phy80211p.decider "xmldoc(\"config_trgi.xml\")"
param *.**.nic.phy80211p.sensitivity -89dBm
param *.**.nic.phy80211p.thermalNoise -110dBm
param *.**.nic.phy80211p.usePropagationDelay true
param *.**.nic.phy80211p.useThermalNoise true
param *.annotations.draw false
param *.connectionManager.alpha 2.0
param *.connectionManager.carrierFrequency "5.890e9 Hz"
param *.connectionManager.pMax 20mW
param *.connectionManager.sat -89dBm
param *.connectionManager.sendDirect true
param *.manager.autoShutdown true
param *.manager.host "\"localhost\""
param *.manager.launchConfig "xmldoc(\"tunnel.launchd.xml\")"
param *.manager.margin 25
param *.manager.moduleDisplayString "\"\""
param *.manager.moduleName "\"node\""
param *.manager.moduleType "\"org.car2x.veins.nodes.Car\""
param *.manager.port 9999
param *.manager.updateInterval 0.1s
param *.node[*].appl.beaconInterval 0.1s
param *.node[*].appl.beaconPriority 3
param *.node[*].appl.dataOnSch false
param *.node[*].appl.dataPriority 2
param *.node[*].appl.debug false
param *.node[*].appl.headerLength "256 bit"
param *.node[*].appl.maxOffset 0.005s
param *.node[*].appl.sendBeacons true
param *.node[*].appl.sendData true
param *.node[*].applType "\"LocAppCom\""
param *.node[*].mobilityType "\"TraCIMobility\""
param *.node[*].mobilityType.debug true
param *.node[*].veinsmobility.x 0
param *.node[*].veinsmobility.y 0
param *.node[*].veinsmobility.z 1.895
param *.node[*].veinsmobilityType "\"org.car2x.veins.modules.mobility.traci.TraCIMobility\""
param *.node[*].veinsmobilityType.debug true
param *.playgroundSizeX 5000m
param *.playgroundSizeY 5000m
param *.playgroundSizeZ 50m
param *.world.use2D false
param *.world.useTorus false

vector 2  LocScenario.node[0].veinsmobility  posx  ETV
vector 3  LocScenario.node[0].veinsmobility  posy  ETV
vector 4  LocScenario.node[0].veinsmobility  speed  ETV
vector 5  LocScenario.node[0].veinsmobility  acceleration  ETV
vector 6  LocScenario.node[0].veinsmobility  co2emission  ETV
vector 9  LocScenario.node[1].veinsmobility  posx  ETV
vector 10  LocScenario.node[1].veinsmobility  posy  ETV
vector 11  LocScenario.node[1].veinsmobility  speed  ETV
vector 12  LocScenario.node[1].veinsmobility  acceleration  ETV
vector 13  LocScenario.node[1].veinsmobility  co2emission  ETV
vector 16  LocScenario.node[2].veinsmobility  posx  ETV
vector 17  LocScenario.node[2].veinsmobility  posy  ETV
vector 18  LocScenario.node[2].veinsmobility  speed  ETV
vector 19  LocScenario.node[2].veinsmobility  acceleration  ETV
vector 20  LocScenario.node[2].veinsmobility  co2emission  ETV
vector 23  LocScenario.node[3].veinsmobility  posx  ETV
vector 24  LocScenario.node[3].veinsmobility  posy  ETV
vector 25  LocScenario.node[3].veinsmobility  speed  ETV
vector 26  LocScenario.node[3].veinsmobility  acceleration  ETV
vector 27  LocScenario.node[3].veinsmobility  co2emission  ETV
vector 30  LocScenario.node[4].veinsmobility  posx  ETV
vector 31  LocScenario.node[4].veinsmobility  posy  ETV
vector 32  LocScenario.node[4].veinsmobility  speed  ETV
vector 33  LocScenario.node[4].veinsmobility  acceleration  ETV
vector 34  LocScenario.node[4].veinsmobility  co2emission  ETV
vector 37  LocScenario.node[5].veinsmobility  posx  ETV
vector 38  LocScenario.node[5].veinsmobility  posy  ETV
vector 39  LocScenario.node[5].veinsmobility  speed  ETV
vector 40  LocScenario.node[5].veinsmobility  acceleration  ETV
vector 41  LocScenario.node[5].veinsmobility  co2emission  ETV
vector 44  LocScenario.node[6].veinsmobility  posx  ETV
vector 45  LocScenario.node[6].veinsmobility  posy  ETV
vector 46  LocScenario.node[6].veinsmobility  speed  ETV
vector 47  LocScenario.node[6].veinsmobility  acceleration  ETV
vector 48  LocScenario.node[6].veinsmobility  co2emission  ETV
vector 51  LocScenario.node[7].veinsmobility  posx  ETV
vector 52  LocScenario.node[7].veinsmobility  posy  ETV
vector 53  LocScenario.node[7].veinsmobility  speed  ETV
vector 54  LocScenario.node[7].veinsmobility  acceleration  ETV
vector 55  LocScenario.node[7].veinsmobility  co2emission  ETV
vector 58  LocScenario.node[8].veinsmobility  posx  ETV
vector 59  LocScenario.node[8].veinsmobility  posy  ETV
vector 60  LocScenario.node[8].veinsmobility  speed  ETV
vector 61  LocScenario.node[8].veinsmobility  acceleration  ETV
vector 62  LocScenario.node[8].veinsmobility  co2emission  ETV
vector 65  LocScenario.node[9].veinsmobility  posx  ETV
vector 66  LocScenario.node[9].veinsmobility  posy  ETV
vector 67  LocScenario.node[9].veinsmobility  speed  ETV
vector 68  LocScenario.node[9].veinsmobility  acceleration  ETV
vector 69  LocScenario.node[9].veinsmobility  co2emission  ETV
6	22	0.3	4.5551213239349
6	32	0.4	1.4838657449168
6	42	0.5	8.7107394840083
6	52	0.6	2.0240760487156
6	62	0.7	1.7307131457212
6	72	0.8	0.973
6	82	0.9	8.19730734342
6	92	1	2.2658231371623
6	102	1.1	3.736681085752
6	133	1.2	2.2377896299954
6	164	1.3	1.8238826558728
6	195	1.4	2.5027831837756
6	226	1.5	1.92948843921
6	257	1.6	3.5762840464108
6	288	1.7	1.1492660784287
6	319	1.8	5.8553014151025
6	350	1.9	0.973
6	381	2	8.1941395152874
6	412	2.1	0.973
6	476	2.2	4.1638373223731
6	540	2.3	4.8253567191331
6	604	2.4	0.973
6	668	2.5	1.6235060759282
6	732	2.6	8.346309743671
6	796	2.7	0.973
6	860	2.8	3.1119751362443
6	924	2.9	7.8113527985815
6	988	3	2.7045562570425
6	1052	3.1	2.5846152751423
6	1161	3.2	0.85388143039299
6	1270	3.3	3.5955649723299
6	1379	3.4	0.973
6	1488	3.5	7.5535430278528
6	1597	3.6	0.973
6	1706	3.7	4.171948077817
6	1815	3.8	5.1801524979314
6	1924	3.9	2.6873138874029
6	2033	4	2.6836365323136
6	2142	4.1	3.0572308817722
6	2308	4.2	1.4721887565211
6	2474	4.3	1.0928237144299
6	2640	4.4	4.7981367805418
6	2806	4.5	1.8620289730881
6	2972	4.6	2.0268559757656
6	3138	4.7	2.0459644443458
6	3304	4.8	6.828048958233
6	3470	4.9	2.1520106489007
6	3636	5	1.3152793662502
6	3802	5.1	0.973
6	4037	5.2	7.8766489890775
6	4272	5.3	1.3940627721772
6	4507	5.4	0.973
6	4742	5.5	4.4228657812579
6	4977	5.6	5.5665577917531
6	5212	5.7	0.83970703835296
6	5447	5.8	3.3202346641236
6	5682	5.9	1.0796808967994
6	5917	6	3.5018826066576
6	6152	6.1	4.0962453294805
6	6468	6.2	3.4380413817998
6	6784	6.3	0.9883933396708
6	7100	6.4	0.973
6	7416	6.5	6.1364248125066
6	7732	6.6	0.973
6	8048	6.7	6.4874702742315
6	8364	6.8	0.973
6	8680	6.9	7.1043538194253
6	8996	7	0.973
6	9312	7.1	5.9801923044941
6	9721	7.2	3.6855667587487
6	10130	7.3	3.8001347998912
6	10539	7.4	1.6927366285526
6	10948	7.5	0.973
6	11357	7.6	5.0179334920876
6	11766	7.7	6.2965331320348
6	12175	7.8	1.2704570320418
6	12584	7.9	1.3543514698302
6	12993	8	5.8851170201958
6	13402	8.1	0.973
6	13916	8.2	3.5309175687174
6	14430	8.3	2.2623064331454
6	14944	8.4	7.3334518681136
6	15458	8.5	0.973
6	15972	8.6	5.5827940860616
6	16486	8.7	3.5649577210415
6	17000	8.8	4.2995178334987
6	17514	8.9	1.5736690474291
6	18028	9	0.973
6	18542	9.1	6.4028371110965
6	19173	9.2	2.5487596088555
6	19804	9.3	1.8939245337844
6	20435	9.4	4.4010912891053
6	21066	9.5	0.973
6	21697	9.6	0.96670886112262
6	22328	9.7	7.1572300090363
6	22959	9.8	0.973
6	23590	9.9	4.8117794965447
6	24221	10	2.5214066892545
6	24852	10.1	3.3724265223729
6	25483	10.2	3.2876011883716
6	26114	10.3	0.92268916247564
6	26745	10.4	3.4943741319324
6	27376	10.5	0.973
6	28007	10.6	5.4169880187991
6	28638	10.7	2.6761408769518
6	29269	10.8	5.8644570157532
6	29900	10.9	1.9647312944172
6	30531	11	3.7510130784883
6	31162	11.1	0.973
6	31793	11.2	2.9771106577201
6	32424	11.3	0.77572204086912
6	33055	11.4	2.7562943854369
6	33686	11.5	3.1581581338994
6	34317	11.6	6.2419572413643
6	34948	11.7	0.973
6	35579	11.8	4.336779946553
6	36210	11.9	2.9171201085859
6	36841	12	1.4423418876954
6	37472	12.1	3.1618734533308
6	38103	12.2	5.8947865355661
6	38734	12.3	3.7579568989007
6	39365	12.4	3.0172367196865
6	39996	12.5	0.973
6	40627	12.6	1.574321459462
6	41258	12.7	6.7873318287525
6	41889	12.8	0.973
6	42520	12.9	2.0182737061712
6	43151	13	7.6031710550344
6	43782	13.1	0.76168852235
6	44413	13.2	2.3257145650996
6	45044	13.3	0.93610867083875
6	45675	13.4	7.6920118898039
6	46306	13.5	1.9322974009507
6	46937	13.6	0.973
6	47568	13.7	7.4855857569145
6	48199	13.8	2.7365855506831
6	48830	13.9	1.1298433457981
6	49461	14	2.956546042408
6	50092	14.1	5.8891728803125
6	50723	14.2	0.973
6	51354	14.3	3.5336207099139
6	51985	14.4	4.9006815708664
6	52616	14.5	0.973
6	53247	14.6	7.5230109311143
6	53878	14.7	0.973
6	54509	14.8	5.805823724011
6	55140	14.9	0.67386455022447
6	55771	15	0.74090048909591
6	56402	15.1	5.6508671281256
6	57033	15.2	0.83661284474517
6	57664	15.3	7.5873701022493
6	58295	15.4	0.973
6	58926	15.5	0.973
6	59557	15.6	6.0946980849681
6	60188	15.7	0.89586157147565
6	60819	15.8	7.6076157957779
6	61450	15.9	0.973
6	62081	16	2.7894163149718
6	62712	16.1	2.6773456488358
6	63343	16.2	5.2312375733724
6	63974	16.3	3.3063921671269
6	64605	16.4	2.7798995134212
6	65236	16.5	4.0599797667116
6	65867	16.6	1.5374040874251
6	66498	16.7	2.3685626597912
6	67129	16.8	1.7326745308804
6	67760	16.9	3.1185251818286
6	68391	17	1.4843285131374
6	69022	17.1	2.855367695227
6	69653	17.2	4.1609639528854
6	70284	17.3	3.0163228020981
6	70915	17.4	1.9701205700386
6	71546	17.5	2.9655314570161
6	72177	17.6	5.3589098222128
6	72808	17.7	0.973
6	73439	17.8	4.3040721123434
6	74070	17.9	0.86635131596483
6	74701	18	3.4646973025096
6	75332	18.1	1.7161588986473
6	75963	18.2	3.7787071957626
6	76594	18.3	5.2053810698128
6	77225	18.4	3.8510831652165
6	77856	18.5	0.91307178139822
6	78487	18.6	4.2040239093912
6	79118	18.7	2.690200030199
6	79749	18.8	1.0548453346135
6	80380	18.9	2.6349817393313
6	81011	19	2.1236856953619
6	81642	19.1	4.0363196413363
6	82273	19.2	4.8519090948054
6	82904	19.3	0.973
6	83535	19.4	2.1356345639073
6	84166	19.5	7.1725313696315
6	84797	19.6	0.973
5	22	0.3	0.35991841449871
5	32	0.4	-0.27590273348615
5	42	0.5	1.2121758741559
5	52	0.6	-0.16641308669932
5	62	0.7	-0.22647055597044
5	72	0.8	-0.90572033193894
5	82	0.9	1.1079700096976
5	92	1	-0.11613300882747
5	102	1.1	0.18687549494206
5	133	1.2	-0.12209810046478
5	164	1.3	-0.20709066793788
5	195	1.4	-0.066568766650725
5	226	1.5	-0.18466404220092
5	257	1.6	0.15550887668507
5	288	1.7	-0.34583247611298
5	319	1.8	0.62499742719808
5	350	1.9	-0.8757647444261
5	381	2	1.1059487933526
5	412	2.1	-0.83600388506891
5	476	2.2	0.27724150789435
5	540	2.3	0.41186323389411
5	604	2.4	-0.82940298810136
5	668	2.5	-0.24683403724339
5	732	2.6	1.138098990079
5	796	2.7	-1.0186648366041
5	860	2.8	0.061414906010029
5	924	2.9	1.0271197644062
5	988	3	-0.026244936720481
5	1052	3.1	-0.050834731105702
5	1161	3.2	-0.40747335532217
5	1270	3.3	0.15880570572335
5	1379	3.4	-0.64179027737119
5	1488	3.5	0.97388611126227
5	1597	3.6	-0.81440373903607
5	1706	3.7	0.27885159119034
5	1815	3.8	0.48460142437833
5	1924	3.9	-0.029650510149075
5	2033	4	-0.030313679249936
5	2142	4.1	0.046627708990101
5	2308	4.2	-0.27989923723506
5	2474	4.3	-0.357743744622
5	2640	4.4	0.40708021295725
5	2806	4.5	-0.19900010612329
5	2972	4.6	-0.1645078790607
5	3138	4.7	-0.16015238249672
5	3304	4.8	0.82419127535537
5	3470	4.9	-0.13997534534425
5	3636	5	-0.31214253525253
5	3802	5.1	-0.71490150350144
5	4037	5.2	1.0415518071968
5	4272	5.3	-0.29591147429308
5	4507	5.4	-0.51850403596184
5	4742	5.5	0.33108306503856
5	4977	5.6	0.56425426520875
5	5212	5.7	-0.41045675212519
5	5447	5.8	0.10197562649847
5	5682	5.9	-0.36045546084644
5	5917	6	0.14039106490092
5	6152	6.1	0.26213168201505
5	6468	6.2	0.12565870075484
5	6784	6.3	-0.37956229595
5	7100	6.4	-0.59632694320754
5	7416	6.5	0.68472462827341
5	7732	6.6	-0.60282906091306
5	8048	6.7	0.75622184020467
5	8364	6.8	-0.89865997394082
5	8680	6.9	0.88378646716009
5	8996	7	-0.74591640627478
5	9312	7.1	0.65212862410117
5	9721	7.2	0.17705364411231
5	10130	7.3	0.19985557226462
5	10539	7.4	-0.23445690269579
5	10948	7.5	-0.93300251553302
5	11357	7.6	0.45508356064094
5	11766	7.7	0.71491363733074
5	12175	7.8	-0.32154233870095
5	12584	7.9	-0.30366155700758
5	12993	8	0.62999740147497
5	13402	8.1	-0.89234694335609
5	13916	8.2	0.14728307963814
5	14430	8.3	-0.1151159861125
5	14944	8.4	0.92827809068837
5	15458	8.5	-1.1846230987226
5	15972	8.6	0.57097226930782
5	16486	8.7	0.15289796101861
5	17000	8.8	0.30328700796236
5	17514	8.9	-0.25883788461798
5	18028	9	-0.61789711122401
5	18542	9.1	0.73840202065185
5	19173	9.2	-0.057498633302764
5	19804	9.3	-0.19234474918338
5	20435	9.4	0.3245659928303
5	21066	9.5	-0.64357622158713
5	21697	9.6	-0.38312911691609
5	22328	9.7	0.89466944509187
5	22959	9.8	-0.53622526330873
5	23590	9.9	0.41074084772262
5	24221	10	-0.062587883905501
5	24852	10.1	0.11297134843186
5	25483	10.2	0.095079366676529
5	26114	10.3	-0.39296433227136
5	26745	10.4	0.13881223844365
5	27376	10.5	-0.67223941311241
5	28007	10.6	0.53731951690278
5	28638	10.7	-0.029922688030624
5	29269	10.8	0.62610672912559
5	29900	10.9	-0.17828493327833
5	30531	11	0.18988619043956
5	31162	11.1	-0.57465571947393
5	31793	11.2	0.032055789674637
5	32424	11.3	-0.42296512592586
5	33055	11.4	-0.012227585888454
5	33686	11.5	0.070850236807019
5	34317	11.6	0.70530975351573
5	34948	11.7	-0.68338415371255
5	35579	11.8	0.31354705141858
5	36210	11.9	0.01967348081525
5	36841	12	-0.28497463448439
5	37472	12.1	0.071103560156196
5	38103	12.2	0.63314668983221
5	38734	12.3	0.19106982962693
5	39365	12.4	0.038120445120171
5	39996	12.5	-0.62859609734733
5	40627	12.6	-0.25771951228382
5	41258	12.7	0.8162872699555
5	41889	12.8	-0.79992448575794
5	42520	12.9	-0.16537218072916
5	43151	13	0.984470333904
5	43782	13.1	-0.42656313048209
5	44413	13.2	-0.10289948314895
5	45044	13.3	-0.38983154238665
5	45675	13.4	1.0021132973256
5	46306	13.5	-0.18530235250946
5	46937	13.6	-1.0977160271024
5	47568	13.7	0.96213584814684
5	48199	13.8	-0.018780840141694
5	48830	13.9	-0.3501626308076
5	49461	14	0.027768845553489
5	50092	14.1	0.63050711462274
5	50723	14.2	-0.86182284320238
5	51354	14.3	0.14751351736486
5	51985	14.4	0.4281678720843
5	52616	14.5	-0.87465362369549
5	53247	14.6	0.96907283081674
5	53878	14.7	-0.68524385162164
5	54509	14.8	0.61498171568381
5	55140	14.9	-0.44447282627225
5	55771	15	-0.43010075797792
5	56402	15.1	0.58477826607415
5	57033	15.2	-0.41046424375381
5	57664	15.3	0.980640075542
5	58295	15.4	-0.57754913137757
5	58926	15.5	-0.68507209958046
5	59557	15.6	0.67668337966317
5	60188	15.7	-0.39817983033135
5	60819	15.8	0.98481004964558
5	61450	15.9	-0.82128451375755
5	62081	16	-0.0062310449080627
5	62712	16.1	-0.029348265868592
5	63343	16.2	0.49676514815072
5	63974	16.3	0.098682367568834
5	64605	16.4	-0.010014507453882
5	65236	16.5	0.25319945535156
5	65867	16.6	-0.26659674807451
5	66498	16.7	-0.094660379085703
5	67129	16.8	-0.22556732392403
5	67760	16.9	0.060904424055472
5	68391	17	-0.27652805459219
5	69022	17.1	0.0073800127254842
5	69653	17.2	0.27645452124997
5	70284	17.3	0.039603872038434
5	70915	17.4	-0.17628073722591
5	71546	17.5	0.029608460352755
5	72177	17.6	0.52173916976901
5	72808	17.7	-0.88469214758373
5	73439	17.8	0.30683785711883
5	74070	17.9	-0.40414319699632
5	74701	18	0.13418551047799
5	75332	18.1	-0.22770238209048
5	75963	18.2	0.19938497685359
5	76594	18.3	0.49226271475202
5	77225	18.4	0.21131528241092
5	77856	18.5	-0.39500593743288
5	78487	18.6	0.28473626442722
5	79118	18.7	-0.028028376260778
5	79749	18.8	-0.36550381123089
5	80380	18.9	-0.038185840612286
5	81011	19	-0.1437088363571
5	81642	19.1	0.25155300810003
5	82273	19.2	0.4181230672868
5	82904	19.3	-0.76224047378638
5	83535	19.4	-0.1406267507933
5	84166	19.5	0.89752935639115
5	84797	19.6	-0.83229220788926
4	12	0.2	19.990365974943
4	22	0.3	20.026357816393
4	32	0.4	19.998767543044
4	42	0.5	20.11998513046
4	52	0.6	20.10334382179
4	62	0.7	20.080696766193
4	72	0.8	19.990124732999
4	82	0.9	20.100921733968
4	92	1	20.089308433086
4	102	1.1	20.10799598258
4	133	1.2	20.095786172533
4	164	1.3	20.07507710574
4	195	1.4	20.068420229075
4	226	1.5	20.049953824854
4	257	1.6	20.065504712523
4	288	1.7	20.030921464912
4	319	1.8	20.093421207631
4	350	1.9	20.005844733189
4	381	2	20.116439612524
4	412	2.1	20.032839224017
4	476	2.2	20.060563374807
4	540	2.3	20.101749698196
4	604	2.4	20.018809399386
4	668	2.5	19.994125995662
4	732	2.6	20.107935894669
4	796	2.7	20.006069411009
4	860	2.8	20.01221090161
4	924	2.9	20.114922878051
4	988	3	20.112298384379
4	1052	3.1	20.107214911268
4	1161	3.2	20.066467575736
4	1270	3.3	20.082348146308
4	1379	3.4	20.018169118571
4	1488	3.5	20.115557729697
4	1597	3.6	20.034117355794
4	1706	3.7	20.062002514913
4	1815	3.8	20.110462657351
4	1924	3.9	20.107497606336
4	2033	4	20.104466238411
4	2142	4.1	20.10912900931
4	2308	4.2	20.081139085586
4	2474	4.3	20.045364711124
4	2640	4.4	20.08607273242
4	2806	4.5	20.066172721807
4	2972	4.6	20.049721933901
4	3138	4.7	20.033706695652
4	3304	4.8	20.116125823187
4	3470	4.9	20.102128288653
4	3636	5	20.070914035127
4	3802	5.1	19.999423884777
4	4037	5.2	20.103579065497
4	4272	5.3	20.073987918068
4	4507	5.4	20.022137514472
4	4742	5.5	20.055245820975
4	4977	5.6	20.111671247496
4	5212	5.7	20.070625572284
4	5447	5.8	20.080823134934
4	5682	5.9	20.044777588849
4	5917	6	20.058816695339
4	6152	6.1	20.085029863541
4	6468	6.2	20.097595733616
4	6784	6.3	20.059639504021
4	7100	6.4	20.0000068097
4	7416	6.5	20.068479272528
4	7732	6.6	20.008196366436
4	8048	6.7	20.083818550457
4	8364	6.8	19.993952553063
4	8680	6.9	20.082331199779
4	8996	7	20.007739559151
4	9312	7.1	20.072952421561
4	9721	7.2	20.090657785973
4	10130	7.3	20.110643343199
4	10539	7.4	20.087197652929
4	10948	7.5	19.993897401376
4	11357	7.6	20.03940575744
4	11766	7.7	20.110897121173
4	12175	7.8	20.078742887303
4	12584	7.9	20.048376731602
4	12993	8	20.11137647175
4	13402	8.1	20.022141777414
4	13916	8.2	20.036870085378
4	14430	8.3	20.025358486767
4	14944	8.4	20.118186295836
4	15458	8.5	19.999723985964
4	15972	8.6	20.056821212894
4	16486	8.7	20.072111008996
4	17000	8.8	20.102439709792
4	17514	8.9	20.076555921331
4	18028	9	20.014766210208
4	18542	9.1	20.088606412273
4	19173	9.2	20.082856548943
4	19804	9.3	20.063622074025
4	20435	9.4	20.096078673308
4	21066	9.5	20.031721051149
4	21697	9.6	19.993408139457
4	22328	9.7	20.082875083967
4	22959	9.8	20.029252557636
4	23590	9.9	20.070326642408
4	24221	10	20.064067854017
4	24852	10.1	20.075364988861
4	25483	10.2	20.084872925528
4	26114	10.3	20.045576492301
4	26745	10.4	20.059457716146
4	27376	10.5	19.992233774834
4	28007	10.6	20.045965726525
4	28638	10.7	20.042973457722
4	29269	10.8	20.105584130634
4	29900	10.9	20.087755637306
4	30531	11	20.10674425635
4	31162	11.1	20.049278684403
4	31793	11.2	20.05248426337
4	32424	11.3	20.010187750778
4	33055	11.4	20.008964992189
4	33686	11.5	20.01605001587
4	34317	11.6	20.086580991221
4	34948	11.7	20.01824257585
4	35579	11.8	20.049597280992
4	36210	11.9	20.051564629073
4	36841	12	20.023067165625
4	37472	12.1	20.03017752164
4	38103	12.2	20.093492190624
4	38734	12.3	20.112599173586
4	39365	12.4	20.116411218098
4	39996	12.5	20.053551608364
4	40627	12.6	20.027779657135
4	41258	12.7	20.109408384131
4	41889	12.8	20.029415935555
4	42520	12.9	20.012878717482
4	43151	13	20.111325750872
4	43782	13.1	20.068669437824
4	44413	13.2	20.058379489509
4	45044	13.3	20.019396335271
4	45675	13.4	20.119607665003
4	46306	13.5	20.101077429752
4	46937	13.6	19.991305827042
4	47568	13.7	20.087519411857
4	48199	13.8	20.085641327843
4	48830	13.9	20.050625064762
4	49461	14	20.053401949317
4	50092	14.1	20.116452660779
4	50723	14.2	20.030270376459
4	51354	14.3	20.045021728196
4	51985	14.4	20.087838515404
4	52616	14.5	20.000373153035
4	53247	14.6	20.097280436116
4	53878	14.7	20.028756050954
4	54509	14.8	20.090254222522
4	55140	14.9	20.045806939895
4	55771	15	20.002796864097
4	56402	15.1	20.061274690705
4	57033	15.2	20.02022826633
4	57664	15.3	20.118292273884
4	58295	15.4	20.060537360746
4	58926	15.5	19.992030150788
4	59557	15.6	20.059698488754
4	60188	15.7	20.019880505721
4	60819	15.8	20.118361510686
4	61450	15.9	20.03623305931
4	62081	16	20.035609954819
4	62712	16.1	20.032675128232
4	63343	16.2	20.082351643047
4	63974	16.3	20.092219879804
4	64605	16.4	20.091218429059
4	65236	16.5	20.116538374594
4	65867	16.6	20.089878699786
4	66498	16.7	20.080412661878
4	67129	16.8	20.057855929486
4	67760	16.9	20.063946371891
4	68391	17	20.036293566432
4	69022	17.1	20.037031567704
4	69653	17.2	20.064677019829
4	70284	17.3	20.068637407033
4	70915	17.4	20.051009333311
4	71546	17.5	20.053970179346
4	72177	17.6	20.106144096323
4	72808	17.7	20.017674881564
4	73439	17.8	20.048358667276
4	74070	17.9	20.007944347577
4	74701	18	20.021362898625
4	75332	18.1	19.998592660415
4	75963	18.2	20.018531158101
4	76594	18.3	20.067757429576
4	77225	18.4	20.088888957817
4	77856	18.5	20.049388364074
4	78487	18.6	20.077861990517
4	79118	18.7	20.07505915289
4	79749	18.8	20.038508771767
4	80380	18.9	20.034690187706
4	81011	19	20.02031930407
4	81642	19.1	20.04547460488
4	82273	19.2	20.087286911609
4	82904	19.3	20.01106286423
4	83535	19.4	19.997000189151
4	84166	19.5	20.08675312479
4	84797	19.6	20.003523904001
3	2	0.1	416.30025728988
3	12	0.2	416.30025728988
3	22	0.3	414.30132154178
3	32	0.4	412.2987867911
3	42	0.5	410.29901092857
3	52	0.6	408.28711391883
3	62	0.7	406.276880956
3	72	0.8	404.26891258448
3	82	0.9	402.27000095935
3	92	1	400.26001019309
3	102	1.1	398.25118069833
3	133	1.2	396.24048254289
3	164	1.3	394.23100530686
3	195	1.4	392.22359887303
3	226	1.5	390.21685809329
3	257	1.6	388.21196386081
3	288	1.7	386.20551461801
3	319	1.8	384.20252352551
3	350	1.9	382.19328277404
3	381	2	380.1927992282
3	412	2.1	378.18125675237
3	476	2.2	376.17807389363
3	540	2.3	374.17211875967
3	604	2.4	372.16204520116
3	668	2.5	370.16026525411
3	732	2.6	368.1609535229
3	796	2.7	366.15026137595
3	860	2.8	364.14975536346
3	924	2.9	362.1486352329
3	988	3	360.13724442286
3	1052	3.1	358.12611604895
3	1161	3.2	356.1154959967
3	1270	3.3	354.10895047244
3	1379	3.4	352.10081697124
3	1488	3.5	350.09910104904
3	1597	3.6	348.08764675704
3	1706	3.7	346.08433609157
3	1815	3.8	344.07823705087
3	1924	3.9	342.0672922404
3	2033	4	340.05664392007
3	2142	4.1	338.04629872124
3	2308	4.2	336.03548726885
3	2474	4.3	334.02747466762
3	2640	4.4	332.02303932336
3	2806	4.5	330.01453338234
3	2972	4.6	328.00801734198
3	3138	4.7	326.00314629743
3	3304	4.8	323.9998766959
3	3470	4.9	321.98836559742
3	3636	5	319.97825418177
3	3802	5.1	317.97126403401
3	4037	5.2	315.97142254061
3	4272	5.3	313.9611660546
3	4507	5.4	311.95386853405
3	4742	5.5	309.95175579228
3	4977	5.6	307.94633238688
3	5212	5.7	305.93526672349
3	5447	5.8	303.92830542056
3	5682	5.9	301.9203244128
3	5917	6	299.91594777781
3	6152	6.1	297.91016730299
3	6468	6.2	295.90176564359
3	6784	6.3	293.89210746058
3	7100	6.4	291.88624470905
3	7416	6.5	289.88634492611
3	7732	6.6	287.87959824232
3	8048	6.7	285.87887954501
3	8364	6.8	283.87059901082
3	8680	6.9	281.87130462299
3	8996	7	279.86317281636
3	9312	7.1	277.86249979748
3	9721	7.2	275.85530582136
3	10130	7.3	273.84634139811
3	10539	7.4	271.83537851997
3	10948	7.5	269.82676009257
3	11357	7.6	267.82747121964
3	11766	7.7	265.82363174068
3	12175	7.8	263.81264348602
3	12584	7.9	261.80487049254
3	12993	8	259.80013396142
3	13402	8.1	257.78909777412
3	13916	8.2	255.78698460608
3	14430	8.3	253.78339868154
3	14944	8.4	251.78096385878
3	15458	8.5	249.76924672343
3	15972	8.6	247.76937522143
3	16486	8.7	245.76379428479
3	17000	8.8	243.75668444568
3	17514	8.9	241.74654188949
3	18028	9	239.73898758157
3	18542	9.1	237.73761193303
3	19173	9.2	235.72885263681
3	19804	9.3	233.72066829791
3	20435	9.4	231.71440730946
3	21066	9.5	229.70490082483
3	21697	9.6	227.70182977774
3	22328	9.7	225.70258982853
3	22959	9.8	223.69440363622
3	23590	9.9	221.69157942603
3	24221	10	219.68464801457
3	24852	10.1	217.67834245038
3	25483	10.2	215.67090722969
3	26114	10.3	213.66252126331
3	26745	10.4	211.658064742
3	27376	10.5	209.65222016833
3	28007	10.6	207.65309764966
3	28638	10.7	205.64860220689
3	29269	10.8	203.64440597591
3	29900	10.9	201.6339489935
3	30531	11	199.62527477048
3	31162	11.1	197.61470178135
3	31793	11.2	195.60987505951
3	32424	11.3	193.60472779594
3	33055	11.4	191.60380997025
3	33686	11.5	189.60301441425
3	34317	11.6	187.60151039163
3	34948	11.7	185.59295362729
3	35579	11.8	183.59123035973
3	36210	11.9	181.58637177984
3	36841	12	179.58131647506
3	37472	12.1	177.57911077286
3	38103	12.2	175.57619407093
3	38734	12.3	173.56694622152
3	39365	12.4	171.55578777021
3	39996	12.5	169.54424813367
3	40627	12.6	167.53899414099
3	41258	12.7	165.53631721341
3	41889	12.8	163.52547782495
3	42520	12.9	161.52263727778
3	43151	13	159.521450369
3	43782	13.1	157.51041925353
3	44413	13.2	155.50365355417
3	45044	13.3	153.49791679773
3	45675	13.4	151.49607816005
3	46306	13.5	149.48421889495
3	46937	13.6	147.47421255989
3	47568	13.7	145.47518283132
3	48199	13.8	143.46653222965
3	48830	13.9	141.45806942691
3	49461	14	139.45310807383
3	50092	14.1	137.44786904629
3	50723	14.2	135.4363252657
3	51354	14.3	133.43339927876
3	51985	14.4	131.42899823106
3	52616	14.5	129.42031572065
3	53247	14.6	127.42037930522
3	53878	14.7	125.41075265037
3	54509	14.8	123.40797808834
3	55140	14.9	121.3990540194
3	55771	15	119.39457445449
3	56402	15.1	117.39439568019
3	57033	15.2	115.38836941823
3	57664	15.3	113.38644759164
3	58295	15.4	111.37471985902
3	58926	15.5	109.36876732634
3	59557	15.6	107.36966516905
3	60188	15.7	105.36379651934
3	60819	15.8	103.36190946705
3	61450	15.9	101.3501748111
3	62081	16	99.346652585951
3	62712	16.1	97.34319266811
3	63343	16.2	95.340026218122
3	63974	16.3	93.331892367265
3	64605	16.4	91.322771742516
3	65236	16.5	89.31375125779
3	65867	16.6	87.302198906248
3	66498	16.7	85.29331238769
3	67129	16.8	83.285372425168
3	67760	16.9	81.279688022089
3	68391	17	79.273394605495
3	69022	17.1	77.269866329942
3	69653	17.2	75.266264257984
3	70284	17.3	73.259897780282
3	70915	17.4	71.25313528384
3	71546	17.5	69.248135505838
3	72177	17.6	67.242839658169
3	72808	17.7	65.232326682016
3	73439	17.8	63.230660181019
3	74070	17.9	61.225925456248
3	74701	18	59.225231959561
3	75332	18.1	57.223196675465
3	75963	18.2	55.223438300315
3	76594	18.3	53.221686175985
3	77225	18.4	51.215011672849
3	77856	18.5	49.206224123496
3	78487	18.6	47.20138643424
3	79118	18.7	45.193701525986
3	79749	18.8	43.186296887355
3	80380	18.9	41.182547102443
3	81011	19	39.179179156673
3	81642	19.1	37.177248226767
3	82273	19.2	35.172801893686
3	82904	19.3	33.164174540871
3	83535	19.4	31.163169208251
3	84166	19.5	29.163570072194
3	84797	19.6	27.154996095368
2	2	0.1	23.397598627787
2	12	0.2	23.397598627787
2	22	0.3	23.416255764834
2	32	0.4	23.434946493297
2	42	0.5	23.453611471581
2	52	0.6	23.472389583019
2	62	0.7	23.491152163016
2	72	0.8	23.509893606371
2	82	0.9	23.528550518264
2	92	1	23.547310837711
2	102	1.1	23.56606031839
2	133	1.2	23.584827240279
2	164	1.3	23.603582766673
2	195	1.4	23.622318965163
2	226	1.5	23.641048950746
2	257	1.6	23.659761701516
2	288	1.7	23.678488966029
2	319	1.8	23.697183953775
2	350	1.9	23.715937272933
2	381	2	23.734608856404
2	412	2.1	23.753383658787
2	476	2.2	23.77208043639
2	540	2.3	23.790803089121
2	604	2.4	23.809564181312
2	668	2.5	23.828247864789
2	732	2.6	23.846908511087
2	796	2.7	23.865675376896
2	860	2.8	23.88434717006
2	924	2.9	23.903024695117
2	988	3	23.921798081922
2	1052	3.1	23.94056901927
2	1161	3.2	23.95933521218
2	1270	3.3	23.978063375339
2	1379	3.4	23.996806359937
2	1488	3.5	24.015489445837
2	1597	3.6	24.034263425153
2	1706	3.7	24.052961395644
2	1815	3.8	24.071685391534
2	1924	3.9	24.090454615586
2	2033	4	24.109221072337
2	2142	4.1	24.127984699893
2	2308	4.2	24.146752679242
2	2474	4.3	24.165494535416
2	2640	4.4	24.184203003137
2	2806	4.5	24.202949463915
2	2972	4.6	24.221677351886
2	3138	4.7	24.240389886231
2	3304	4.8	24.25908747345
2	3470	4.9	24.277861982971
2	3636	5	24.296623428504
2	3802	5.1	24.315355741573
2	4037	5.2	24.334021332425
2	4272	5.3	24.352784131976
2	4507	5.4	24.37151931392
2	4742	5.5	24.390206103548
2	4977	5.6	24.408923793372
2	5212	5.7	24.427694145409
2	5447	5.8	24.446426189254
2	5682	5.9	24.465167750549
2	5917	6	24.483875670305
2	6152	6.1	24.502596692848
2	6468	6.2	24.521342180311
2	6784	6.3	24.54009939558
2	7100	6.4	24.558821186056
2	7416	6.5	24.577487320956
2	7732	6.6	24.596217361645
2	8048	6.7	24.614891139911
2	8364	6.8	24.633635496847
2	8680	6.9	24.65229598127
2	8996	7	24.671038950052
2	9312	7.1	24.689712301976
2	9721	7.2	24.708446517484
2	10130	7.3	24.727197257522
2	10539	7.4	24.74596665021
2	10948	7.5	24.764714160884
2	11357	7.6	24.783374593833
2	11766	7.7	24.802077500024
2	12175	7.8	24.820847129564
2	12584	7.9	24.839586749351
2	12993	8	24.858298028209
2	13402	8.1	24.87706810513
2	13916	8.2	24.895754898737
2	14430	8.3	24.914455438369
2	14944	8.4	24.933145234152
2	15458	8.5	24.951921666725
2	15972	8.6	24.970587537664
2	16486	8.7	24.989306697811
2	17000	8.8	25.008040128023
2	17514	8.9	25.026801864207
2	18028	9	25.045539442884
2	18542	9.1	25.064219352827
2	19173	9.2	25.082968178305
2	19804	9.3	25.101711637399
2	20435	9.4	25.120437144834
2	21066	9.5	25.139192944221
2	21697	9.6	25.157888678226
2	22328	9.7	25.176548654544
2	22959	9.8	25.195292130937
2	23590	9.9	25.213985561081
2	24221	10	25.232717325932
2	24852	10.1	25.251443249416
2	25483	10.2	25.270179716589
2	26114	10.3	25.28892505758
2	26745	10.4	25.307633722957
2	27376	10.5	25.32635534377
2	28007	10.6	25.345014224046
2	28638	10.7	25.363723252698
2	29269	10.8	25.382429488646
2	29900	10.9	25.401194159538
2	30531	11	25.419942190982
2	31162	11.1	25.438707944627
2	31793	11.2	25.457420065284
2	32424	11.3	25.476135177728
2	33055	11.4	25.494810814566
2	33686	11.5	25.513485310194
2	34317	11.6	25.532166418321
2	34948	11.7	25.550913353461
2	35579	11.8	25.569596507918
2	36210	11.9	25.588308925924
2	36841	12	25.607023180067
2	37472	12.1	25.625710837345
2	38103	12.2	25.644405130764
2	38734	12.3	25.663158516171
2	39365	12.4	25.681929734247
2	39996	12.5	25.700704510129
2	40627	12.6	25.719420618734
2	41258	12.7	25.73811267421
2	41889	12.8	25.756880914302
2	42520	12.9	25.775574496928
2	43151	13	25.794252645262
2	43782	13.1	25.813022674845
2	44413	13.2	25.831752893016
2	45044	13.3	25.850473507513
2	45675	13.4	25.869157738782
2	46306	13.5	25.887935497928
2	46937	13.6	25.906695962687
2	47568	13.7	25.925353976904
2	48199	13.8	25.944101787877
2	48830	13.9	25.962847846023
2	49461	14	25.981561223265
2	50092	14.1	26.000277192192
2	50723	14.2	26.019052006753
2	51354	14.3	26.037746386834
2	51985	14.4	26.056454534446
2	52616	14.5	26.075202643241
2	53247	14.6	26.093869120051
2	53878	14.7	26.112626041051
2	54509	14.8	26.131319007803
2	55140	14.9	26.150069371193
2	55771	15	26.168778251648
2	56402	15.1	26.187446990523
2	57033	15.2	26.20617030713
2	57664	15.3	26.224855314845
2	58295	15.4	26.243631846329
2	58926	15.5	26.262354474781
2	59557	15.6	26.281013165013
2	60188	15.7	26.29973501054
2	60819	15.8	26.318419693688
2	61450	15.9	26.337196289791
2	62081	16	26.355896234882
2	62712	16.1	26.374595598426
2	63343	16.2	26.393292222877
2	63974	16.3	26.412035210739
2	64605	16.4	26.430787408689
2	65236	16.5	26.44953867198
2	65867	16.6	26.468313566538
2	66498	16.7	26.48706357945
2	67129	16.8	26.505804757648
2	67760	16.9	26.524524883503
2	68391	17	26.543250693607
2	69022	17.1	26.56195069517
2	69653	17.2	26.580651385514
2	70284	17.3	26.599377877536
2	70915	17.4	26.618108065814
2	71546	17.5	26.636821801696
2	72177	17.6	26.655538300955
2	72808	17.7	26.674303494467
2	73439	17.8	26.692986119091
2	74070	17.9	26.71169738109
2	74701	18	26.730370924145
2	75332	18.1	26.74905699082
2	75963	18.2	26.767721805885
2	76594	18.3	26.786405229678
2	77225	18.4	26.805134596666
2	77856	18.5	26.823883685846
2	78487	18.6	26.842595908868
2	79118	18.7	26.861334706508
2	79749	18.8	26.880070888242
2	80380	18.9	26.89877295727
2	81011	19	26.917471462389
2	81642	19.1	26.93615655507
2	82273	19.2	26.954865125355
2	82904	19.3	26.973612719335
2	83535	19.4	26.992289172921
2	84166	19.5	27.010952501723
2	84797	19.6	27.029699597516
13	164	1.3	1.7828071427074
13	195	1.4	1.543353553359
13	226	1.5	4.1757298307509
13	257	1.6	6.287745163873
13	288	1.7	3.1941845061214
13	319	1.8	2.9168763225232
13	350	1.9	7.5672378240352
13	381	2	0.973
13	412	2.1	5.9274834836994
13	476	2.2	2.5679929088516
13	540	2.3	2.5680528242214
13	604	2.4	6.183512418675
13	668	2.5	0.973
13	732	2.6	3.356233745734
13	796	2.7	7.1305667650723
13	860	2.8	4.2854634216296
13	924	2.9	2.6838786870448
13	988	3	4.0380452604087
13	1052	3.1	5.2435448996336
13	1161	3.2	3.7535582165864
13	1270	3.3	3.2540850716528
13	1379	3.4	1.0510975307616
13	1488	3.5	1.5161425901528
13	1597	3.6	7.4475640205392
13	1706	3.7	0.973
13	1815	3.8	6.6919713525911
13	1924	3.9	6.3654136466832
13	2033	4	4.3373792115349
13	2142	4.1	0.973
13	2308	4.2	4.7992648416153
13	2474	4.3	1.5779885741207
13	2640	4.4	1.4801183144595
13	2806	4.5	3.5351058296461
13	2972	4.6	8.1254145295576
13	3138	4.7	2.135692861453
13	3304	4.8	0.973
13	3470	4.9	7.486985121538
13	3636	5	3.1088562564464
13	3802	5.1	2.3201606903781
13	4037	5.2	0.973
13	4272	5.3	10.768017547657
13	4507	5.4	1.6449683937081
13	4742	5.5	0.973
13	4977	5.6	5.6650705473913
13	5212	5.7	6.8479475133271
13	5447	5.8	3.0588388155999
13	5682	5.9	0.973
13	5917	6	0.973
13	6152	6.1	3.7189185466275
13	6468	6.2	7.1406916629144
13	6784	6.3	6.2516436926633
13	7100	6.4	1.7757667826558
13	7416	6.5	0.92891264625735
13	7732	6.6	4.2908914089989
13	8048	6.7	1.7829865890198
13	8364	6.8	4.3853036286397
13	8680	6.9	0.72510043153948
13	8996	7	3.5044923765212
13	9312	7.1	4.4750190747489
13	9721	7.2	2.3166374729078
13	10130	7.3	5.889420974344
13	10539	7.4	4.8426526867505
13	10948	7.5	2.82385353015
13	11357	7.6	0.973
13	11766	7.7	10.84029374502
13	12175	7.8	2.9352194171332
13	12584	7.9	3.8105004624394
13	12993	8	0.973
13	13402	8.1	9.4397925377562
13	13916	8.2	0.973
13	14430	8.3	2.7254570064196
13	14944	8.4	4.5646170337601
13	15458	8.5	6.0375293958451
13	15972	8.6	0.74585031781694
13	16486	8.7	3.9423190695514
13	17000	8.8	1.8479989790971
13	17514	8.9	8.5485370944629
13	18028	9	0.973
13	18542	9.1	0.973
13	19173	9.2	10.543797251472
13	19804	9.3	2.0426000631674
13	20435	9.4	2.6285003522024
13	21066	9.5	3.0228891107124
13	21697	9.6	2.4538237399897
13	22328	9.7	0.973
13	22959	9.8	5.3796610149356
13	23590	9.9	5.049129546932
13	24221	10	5.0913374566543
13	24852	10.1	2.4258933519671
13	25483	10.2	4.7225865727431
13	26114	10.3	2.942733799705
13	26745	10.4	0.973
13	27376	10.5	8.3881656159864
13	28007	10.6	0.973
13	28638	10.7	1.0545037550762
13	29269	10.8	5.3931746357571
13	29900	10.9	4.0464499070078
13	30531	11	0.96486170275456
13	31162	11.1	8.3998713985557
13	31793	11.2	0.973
13	32424	11.3	6.5655931998065
13	33055	11.4	1.4712618831041
13	33686	11.5	0.973
13	34317	11.6	6.2505482436058
13	34948	11.7	6.9055194748068
13	35579	11.8	0.973
13	36210	11.9	1.7277570138732
13	36841	12	2.4002786454281
13	37472	12.1	4.5463929564117
13	38103	12.2	4.5602130834087
13	38734	12.3	1.6954291150692
13	39365	12.4	8.0170053715639
13	39996	12.5	0.973
13	40627	12.6	5.3156005646163
13	41258	12.7	0.973
13	41889	12.8	6.2062003385903
13	42520	12.9	0.973
13	43151	13	2.7409582296505
13	43782	13.1	8.1314212628101
13	44413	13.2	3.116560520038
13	45044	13.3	2.7939977486701
13	45675	13.4	0.973
13	46306	13.5	8.2214187465777
13	46937	13.6	0.973
13	47568	13.7	0.973
13	48199	13.8	6.7316394700099
13	48830	13.9	3.7900042604647
13	49461	14	3.2376386898808
13	50092	14.1	3.5382993818533
13	50723	14.2	4.6538084136013
13	51354	14.3	0.973
13	51985	14.4	0.973
13	52616	14.5	6.6080782293728
13	53247	14.6	0.973
13	53878	14.7	11.218920788632
13	54509	14.8	0.81499835350955
13	55140	14.9	0.973
13	55771	15	2.2025193239377
13	56402	15.1	0.973
13	57033	15.2	9.5783025993099
13	57664	15.3	0.973
13	58295	15.4	9.1922202451483
13	58926	15.5	3.4153580248239
13	59557	15.6	0.973
13	60188	15.7	8.8708408524952
13	60819	15.8	0.973
13	61450	15.9	7.9429009038275
13	62081	16	1.829097340469
13	62712	16.1	2.2905830582362
13	63343	16.2	2.3455165160336
13	63974	16.3	3.459703675042
13	64605	16.4	7.4898550952824
13	65236	16.5	2.8100301038178
13	65867	16.6	0.73394424926467
13	66498	16.7	3.1757425098921
13	67129	16.8	5.0645306492624
13	67760	16.9	0.973
13	68391	17	3.6571449157356
13	69022	17.1	2.6547736071042
13	69653	17.2	0.973
13	70284	17.3	9.341868088066
13	70915	17.4	0.70030225952576
13	71546	17.5	1.4053339904962
13	72177	17.6	1.6470865156712
13	72808	17.7	9.5241214384478
13	73439	17.8	0.973
13	74070	17.9	0.75126607287563
13	74701	18	6.1458407052914
13	75332	18.1	3.0382059932348
13	75963	18.2	0.973
13	76594	18.3	6.7301336410516
13	77225	18.4	3.2386299232452
13	77856	18.5	5.837315448029
13	78487	18.6	2.2100961669302
13	79118	18.7	2.0147271370757
13	79749	18.8	0.973
13	80380	18.9	0.973
13	81011	19	2.5163395319746
13	81642	19.1	3.4177016280528
13	82273	19.2	2.9506046750966
13	82904	19.3	9.5322300143811
13	83535	19.4	0.973
13	84166	19.5	2.3178666591322
13	84797	19.6	9.8549435413093
13	85428	19.7	0.973
13	85942	19.8	8.8312083803561
13	86456	19.9	3.4690537311407
13	86970	20	0.973
13	87484	20.1	5.7636407986875
13	87998	20.2	0.973
13	88512	20.3	7.1887257379796
13	89026	20.4	1.8754291935994
13	89540	20.5	3.9309824278192
13	90054	20.6	0.973
13	90568	20.7	4.7107983965659
13	91082	20.8	2.0161501587254
13	91596	20.9	5.2699173398258
12	164	1.3	-0.18277021124927
12	195	1.4	-0.23571905563148
12	226	1.5	0.35035974083439
12	257	1.6	0.8149349844253
12	288	1.7	0.12788190757245
12	319	1.8	0.066144489938758
12	350	1.9	1.0872956569708
12	381	2	-0.9202969994811
12	412	2.1	0.72723076889201
12	476	2.2	-0.013981990993237
12	540	2.3	-0.013924869804534
12	604	2.4	0.77819010430972
12	668	2.5	-0.48554235036704
12	732	2.6	0.15817332264888
12	796	2.7	0.98081218566826
12	860	2.8	0.35588246391562
12	924	2.9	0.0057569034674998
12	988	3	0.30032059360661
12	1052	3.1	0.55995226263914
12	1161	3.2	0.23466982182391
12	1270	3.3	0.1256240273359
12	1379	3.4	-0.35236626145338
12	1488	3.5	-0.25069065736055
12	1597	3.6	1.0327161739434
12	1706	3.7	-0.57199373759136
12	1815	3.8	0.86668020775253
12	1924	3.9	0.79019019729753
12	2033	4	0.35138582827706
12	2142	4.1	-0.58262598613723
12	2308	4.2	0.45146942918645
12	2474	4.3	-0.24140317107449
12	2640	4.4	-0.26200026985208
12	2806	4.5	0.18072041801602
12	2972	4.6	1.1596310383674
12	3138	4.7	-0.12371419539026
12	3304	4.8	-0.58433495871284
12	3470	4.9	1.0201448759682
12	3636	5	0.083062642899776
12	3802	5.1	-0.085379110721142
12	4037	5.2	-1.1576219695952
12	4272	5.3	1.7154481964233
12	4507	5.4	-0.23052964705172
12	4742	5.5	-0.56949213218154
12	4977	5.6	0.62782199718875
12	5212	5.7	0.87363073834286
12	5447	5.8	0.067861562538383
12	5682	5.9	-0.49192697830616
12	5917	6	-0.68782747318984
12	6152	6.1	0.21234384330057
12	6468	6.2	0.93557448487839
12	6784	6.3	0.74136120834478
12	7100	6.4	-0.20592966572693
12	7416	6.5	-0.38493467844003
12	7732	6.6	0.32748194972818
12	8048	6.7	-0.20381681565425
12	8364	6.8	0.34677873615188
12	8680	6.9	-0.42826712316241
12	8996	7	0.1612492126478
12	9312	7.1	0.36528216564609
12	9721	7.2	-0.091540958812288
12	10130	7.3	0.66101992824095
12	10539	7.4	0.43757731336111
12	10948	7.5	0.012201908183336
12	11357	7.6	-1.9295717076135
12	11766	7.7	1.7037503229744
12	12175	7.8	0.036320114542754
12	12584	7.9	0.2199288248525
12	12993	8	-0.89930357696868
12	13402	8.1	1.4004799260599
12	13916	8.2	-1.2279532495
12	14430	8.3	-0.0062502721580415
12	14944	8.4	0.38061285448634
12	15458	8.5	0.68676907958576
12	15972	8.6	-0.42551108100451
12	16486	8.7	0.24698826349908
12	17000	8.8	-0.19336881459008
12	17514	8.9	1.2069373416021
12	18028	9	-0.83776796472137
12	18542	9.1	-0.86280613260847
12	19173	9.2	1.6256029024807
12	19804	9.3	-0.15481901161312
12	20435	9.4	-0.031890382819491
12	21066	9.5	0.050623755260695
12	21697	9.6	-0.068463263471301
12	22328	9.7	-1.0821873940478
12	22959	9.8	0.54829843759148
12	23590	9.9	0.47608599103459
12	24221	10	0.48217660731559
12	24852	10.1	-0.075335919975643
12	25483	10.2	0.40327025799087
12	26114	10.3	0.03135111672556
12	26745	10.4	-1.2336558729697
12	27376	10.5	1.1693119913739
12	28007	10.6	-0.70905618576241
12	28638	10.7	-0.36138086777576
12	29269	10.8	0.54671738523101
12	29900	10.9	0.26337898930954
12	30531	11	-0.38079636253677
12	31162	11.1	1.1669342812433
12	31793	11.2	-1.4085691484742
12	32424	11.3	0.7891934289156
12	33055	11.4	-0.27516690637349
12	33686	11.5	-0.47324110478712
12	34317	11.6	0.72351129428103
12	34948	11.7	0.85394638485969
12	35579	11.8	-1.016492861705
12	36210	11.9	-0.22118664751041
12	36841	12	-0.080086504548369
12	37472	12.1	0.36773594836244
12	38103	12.2	0.36872645736331
12	38734	12.3	-0.22887218438257
12	39365	12.4	1.082935520143
12	39996	12.5	-0.84997654055741
12	40627	12.6	0.52330228391956
12	41258	12.7	-0.61340200485429
12	41889	12.8	0.70809426301231
12	42520	12.9	-0.89186692588687
12	43151	13	-0.010177322648239
12	43782	13.1	1.1069595707417
12	44413	13.2	0.064100910124765
12	45044	13.3	-0.0029311172074742
12	45675	13.4	-0.62360352536057
12	46306	13.5	1.1206912186683
12	46937	13.6	-1.1532294012248
12	47568	13.7	-0.58844568990835
12	48199	13.8	0.81863239511442
12	48830	13.9	0.20503755061927
12	49461	14	0.089768206594485
12	50092	14.1	0.15168394221778
12	50723	14.2	0.3815224412871
12	51354	14.3	-0.6160010584955
12	51985	14.4	-0.8286676957135
12	52616	14.5	0.79162380535962
12	53247	14.6	-0.98152286543876
12	53878	14.7	1.7420067274082
12	54509	14.8	-0.41437007586211
12	55140	14.9	-0.61670001328178
12	55771	15	-0.12414267502876
12	56402	15.1	-0.48148949588771
12	57033	15.2	1.4042800943536
12	57664	15.3	-1.349034738245
12	58295	15.4	1.3243911071623
12	58926	15.5	0.12473337997488
12	59557	15.6	-1.4757583505975
12	60188	15.7	1.2585659435804
12	60819	15.8	-1.1223726360891
12	61450	15.9	1.0663378078862
12	62081	16	-0.20325322155255
12	62712	16.1	-0.10699325248641
12	63343	16.2	-0.095295315253701
12	63974	16.3	0.13609010439662
12	64605	16.4	0.96654555395272
12	65236	16.5	-0.0022320495857997
12	65867	16.6	-0.43151934314139
12	66498	16.7	0.074786174758898
12	67129	16.8	0.46388214812385
12	67760	16.9	-0.78730057812368
12	68391	17	0.17524026112596
12	69022	17.1	-0.032687529048516
12	69653	17.2	-0.78982521015796
12	70284	17.3	1.3497349106768
12	70915	17.4	-0.4385157532559
12	71546	17.5	-0.29172315133813
12	72177	17.6	-0.24099569234497
12	72808	17.7	1.3832537209882
12	73439	17.8	-1.2276393880552
12	74070	17.9	-0.42701330811482
12	74701	18	0.69189860512033
12	75332	18.1	0.046704842540493
12	75963	18.2	-0.83439728915202
12	76594	18.3	0.81298958789912
12	77225	18.4	0.088046304359395
12	77856	18.5	0.62312799067929
12	78487	18.6	-0.12664516102927
12	79118	18.7	-0.16666130975793
12	79749	18.8	-0.4781601361012
12	80380	18.9	-0.60512996036522
12	81011	19	-0.059354964688154
12	81642	19.1	0.12788724738893
12	82273	19.2	0.030551985630041
12	82904	19.3	1.3861295372691
12	83535	19.4	-1.5168164205803
12	84166	19.5	-0.1004921886048
12	84797	19.6	1.454547810951
12	85428	19.7	-0.76482578470628
12	85942	19.8	1.2382915183009
12	86456	19.9	0.13118693095169
12	86970	20	-1.0078925278038
12	87484	20.1	0.60694505539722
12	87998	20.2	-0.86353108284527
12	88512	20.3	0.90114100575448
12	89026	20.4	-0.19617202100346
12	89540	20.5	0.22792417195159
12	90054	20.6	-0.7770674477797
12	90568	20.7	0.39104105464649
12	91082	20.8	-0.16626753220333
12	91596	20.9	0.50479151005856
11	133	1.2	18.622114567869
11	164	1.3	18.603837546744
11	195	1.4	18.580265641181
11	226	1.5	18.615301615265
11	257	1.6	18.696795113707
11	288	1.7	18.709583304464
11	319	1.8	18.716197753458
11	350	1.9	18.824927319155
11	381	2	18.732897619207
11	412	2.1	18.805620696096
11	476	2.2	18.804222496997
11	540	2.3	18.802830010017
11	604	2.4	18.880649020448
11	668	2.5	18.832094785411
11	732	2.6	18.847912117676
11	796	2.7	18.945993336243
11	860	2.8	18.981581582634
11	924	2.9	18.982157272981
11	988	3	19.012189332342
11	1052	3.1	19.068184558605
11	1161	3.2	19.091651540788
11	1270	3.3	19.104213943521
11	1379	3.4	19.068977317376
11	1488	3.5	19.04390825164
11	1597	3.6	19.147179869034
11	1706	3.7	19.089980495275
11	1815	3.8	19.176648516051
11	1924	3.9	19.25566753578
11	2033	4	19.290806118608
11	2142	4.1	19.232543519994
11	2308	4.2	19.277690462913
11	2474	4.3	19.253550145805
11	2640	4.4	19.22735011882
11	2806	4.5	19.245422160622
11	2972	4.6	19.361385264459
11	3138	4.7	19.34901384492
11	3304	4.8	19.290580349048
11	3470	4.9	19.392594836645
11	3636	5	19.400901100935
11	3802	5.1	19.392363189863
11	4037	5.2	19.276600992903
11	4272	5.3	19.448145812546
11	4507	5.4	19.425092847841
11	4742	5.5	19.368143634622
11	4977	5.6	19.430925834341
11	5212	5.7	19.518288908176
11	5447	5.8	19.525075064429
11	5682	5.9	19.475882366599
11	5917	6	19.40709961928
11	6152	6.1	19.42833400361
11	6468	6.2	19.521891452098
11	6784	6.3	19.596027572932
11	7100	6.4	19.57543460636
11	7416	6.5	19.536941138516
11	7732	6.6	19.569689333488
11	8048	6.7	19.549307651923
11	8364	6.8	19.583985525538
11	8680	6.9	19.541158813222
11	8996	7	19.557283734487
11	9312	7.1	19.593811951051
11	9721	7.2	19.58465785517
11	10130	7.3	19.650759847994
11	10539	7.4	19.69451757933
11	10948	7.5	19.695737770149
11	11357	7.6	19.502780599387
11	11766	7.7	19.673155631685
11	12175	7.8	19.676787643139
11	12584	7.9	19.698780525624
11	12993	8	19.608850167927
11	13402	8.1	19.748898160533
11	13916	8.2	19.626102835583
11	14430	8.3	19.625477808367
11	14944	8.4	19.663539093816
11	15458	8.5	19.732216001775
11	15972	8.6	19.689664893674
11	16486	8.7	19.714363720024
11	17000	8.8	19.695026838565
11	17514	8.9	19.815720572725
11	18028	9	19.731943776253
11	18542	9.1	19.645663162992
11	19173	9.2	19.80822345324
11	19804	9.3	19.792741552079
11	20435	9.4	19.789552513797
11	21066	9.5	19.794614889323
11	21697	9.6	19.787768562976
11	22328	9.7	19.679549823571
11	22959	9.8	19.73437966733
11	23590	9.9	19.781988266434
11	24221	10	19.830205927165
11	24852	10.1	19.822672335168
11	25483	10.2	19.862999360967
11	26114	10.3	19.86613447264
11	26745	10.4	19.742768885343
11	27376	10.5	19.85970008448
11	28007	10.6	19.788794465904
11	28638	10.7	19.752656379126
11	29269	10.8	19.807328117649
11	29900	10.9	19.83366601658
11	30531	11	19.795586380327
11	31162	11.1	19.912279808451
11	31793	11.2	19.771422893603
11	32424	11.3	19.850342236495
11	33055	11.4	19.822825545858
11	33686	11.5	19.775501435379
11	34317	11.6	19.847852564807
11	34948	11.7	19.933247203293
11	35579	11.8	19.831597917123
11	36210	11.9	19.809479252372
11	36841	12	19.801470601917
11	37472	12.1	19.838244196753
11	38103	12.2	19.875116842489
11	38734	12.3	19.852229624051
11	39365	12.4	19.960523176065
11	39996	12.5	19.87552552201
11	40627	12.6	19.927855750401
11	41258	12.7	19.866515549916
11	41889	12.8	19.937324976217
11	42520	12.9	19.848138283629
11	43151	13	19.847120551364
11	43782	13.1	19.957816508438
11	44413	13.2	19.96422659945
11	45044	13.3	19.96393348773
11	45675	13.4	19.901573135194
11	46306	13.5	20.01364225706
11	46937	13.6	19.898319316938
11	47568	13.7	19.839474747947
11	48199	13.8	19.921337987459
11	48830	13.9	19.941841742521
11	49461	14	19.95081856318
11	50092	14.1	19.965986957402
11	50723	14.2	20.00413920153
11	51354	14.3	19.942539095681
11	51985	14.4	19.85967232611
11	52616	14.5	19.938834706646
11	53247	14.6	19.840682420102
11	53878	14.7	20.014883092842
11	54509	14.8	19.973446085256
11	55140	14.9	19.911776083928
11	55771	15	19.899361816425
11	56402	15.1	19.851212866836
11	57033	15.2	19.991640876272
11	57664	15.3	19.856737402447
11	58295	15.4	19.989176513164
11	58926	15.5	20.001649851161
11	59557	15.6	19.854074016101
11	60188	15.7	19.979930610459
11	60819	15.8	19.86769334685
11	61450	15.9	19.974327127639
11	62081	16	19.954001805484
11	62712	16.1	19.943302480235
11	63343	16.2	19.93377294871
11	63974	16.3	19.947381959149
11	64605	16.4	20.044036514545
11	65236	16.5	20.043813309586
11	65867	16.6	20.000661375272
11	66498	16.7	20.008139992748
11	67129	16.8	20.05452820756
11	67760	16.9	19.975798149748
11	68391	17	19.99332217586
11	69022	17.1	19.990053422956
11	69653	17.2	19.91107090194
11	70284	17.3	20.046044393007
11	70915	17.4	20.002192817682
11	71546	17.5	19.973020502548
11	72177	17.6	19.948920933314
11	72808	17.7	20.087246305412
11	73439	17.8	19.964482366607
11	74070	17.9	19.921781035795
11	74701	18	19.990970896307
11	75332	18.1	19.995641380561
11	75963	18.2	19.912201651646
11	76594	18.3	19.993500610436
11	77225	18.4	20.002305240872
11	77856	18.5	20.06461803994
11	78487	18.6	20.051953523837
11	79118	18.7	20.035287392861
11	79749	18.8	19.987471379251
11	80380	18.9	19.926958383215
11	81011	19	19.921022886746
11	81642	19.1	19.933811611485
11	82273	19.2	19.936866810048
11	82904	19.3	20.075479763775
11	83535	19.4	19.923798121717
11	84166	19.5	19.913748902856
11	84797	19.6	20.059203683951
11	85428	19.7	19.982721105481
11	85942	19.8	20.106550257311
11	86456	19.9	20.119668950406
11	86970	20	20.018879697626
11	87484	20.1	20.079574203165
11	87998	20.2	19.993221094881
11	88512	20.3	20.083335195456
11	89026	20.4	20.063717993356
11	89540	20.5	20.086510410551
11	90054	20.6	20.008803665773
11	90568	20.7	20.047907771238
11	91082	20.8	20.031281018017
11	91596	20.9	20.081760169023
10	102	1.1	416.30025728988
10	133	1.2	416.30025728988
10	164	1.3	414.43813977979
10	195	1.4	412.57784987961
10	226	1.5	410.71991705107
10	257	1.6	408.85848080187
10	288	1.7	406.98889561395
10	319	1.8	405.11803167147
10	350	1.9	403.24650631747
10	381	2	401.36410855542
10	412	2.1	399.49091329909
10	476	2.2	397.61044610195
10	540	2.3	395.73011871766
10	604	2.4	393.84993057505
10	668	2.5	391.96196092398
10	732	2.6	390.07884645147
10	796	2.7	388.19415032553
10	860	2.8	386.29964657254
10	924	2.9	384.40158417445
10	988	3	382.50346421023
10	1052	3.1	380.60234119158
10	1161	3.2	378.69561893279
10	1270	3.3	376.78655009418
10	1379	3.4	374.87622507867
10	1488	3.5	372.96942354801
10	1597	3.6	371.06512879745
10	1706	3.7	369.15050740615
10	1815	3.8	367.24160566365
10	1924	3.9	365.32403755632
10	2033	4	363.39856794565
10	2142	4.1	361.46958465397
10	2308	4.2	359.54642732822
10	2474	4.3	357.61875553594
10	2640	4.4	355.69349765359
10	2806	4.5	353.77085964176
10	2972	4.6	351.84641451692
10	3138	4.7	349.91037366672
10	3304	4.8	347.97556989606
10	3470	4.9	346.04660918019
10	3636	5	344.10744753022
10	3802	5.1	342.16745529573
10	4037	5.2	340.22831680927
10	4272	5.3	338.30075395849
10	4507	5.4	336.35603749118
10	4742	5.5	334.41362620404
10	4977	5.6	332.47690955092
10	5212	5.7	330.53391499455
10	5447	5.8	328.58218457155
10	5682	5.9	326.62977556715
10	5917	6	324.68228558436
10	6152	6.1	322.7416735293
10	6468	6.2	320.79893814293
10	6784	6.3	318.8468474837
10	7100	6.4	316.8873435864
10	7416	6.5	314.92989888187
10	7732	6.6	312.97630332992
10	8048	6.7	311.01943312369
10	8364	6.8	309.0646009828
10	8680	6.9	307.10630122948
10	8996	7	305.15228393135
10	9312	7.1	303.19665422243
10	9721	7.2	301.23737187614
10	10130	7.3	299.27900489325
10	10539	7.4	297.31402804457
10	10948	7.5	295.3446756435
10	11357	7.6	293.3752012295
10	11766	7.7	291.42502155913
10	12175	7.8	289.45780524506
10	12584	7.9	287.49022574816
10	12993	8	285.52044707397
10	13402	8.1	283.55966098186
10	13916	8.2	281.58487079701
10	14430	8.3	279.62235952518
10	14944	8.4	277.6599107529
10	15458	8.5	275.6936560441
10	15972	8.6	273.72053399097
10	16486	8.7	271.75166683399
10	17000	8.8	269.78032991897
10	17514	8.9	267.81092659455
10	18028	9	265.8294545056
10	18542	9.1	263.85635967365
10	19173	9.2	261.89189246775
10	19804	9.3	259.91117005292
10	20435	9.4	257.93199575011
10	21066	9.5	255.95314033503
10	21697	9.6	253.97377870795
10	22328	9.7	251.99510167895
10	22959	9.8	250.02724597795
10	23590	9.9	248.05390756918
10	24221	10	246.07580854068
10	24852	10.1	244.09288798936
10	25483	10.2	242.11072075924
10	26114	10.3	240.12452102998
10	26745	10.4	238.13800780537
10	27376	10.5	236.16383051712
10	28007	10.6	234.17796069887
10	28638	10.7	232.19918108476
10	29269	10.8	230.22401509702
10	29900	10.9	228.24338221123
10	30531	11	226.26011566843
10	31162	11.1	224.28065689714
10	31793	11.2	222.28952937175
10	32424	11.3	220.31248682723
10	33055	11.4	218.32755274657
10	33686	11.5	216.34537019615
10	34317	11.6	214.36791981803
10	34948	11.7	212.38323469197
10	35579	11.8	210.39001053287
10	36210	11.9	208.40695078958
10	36841	12	206.42610280118
10	37472	12.1	204.44605563742
10	38103	12.2	202.46233129969
10	38734	12.3	200.47491988341
10	39365	12.4	198.48979707351
10	39996	12.5	196.49384545474
10	40627	12.6	194.50639317257
10	41258	12.7	192.51370813156
10	41889	12.8	190.52715680115
10	42520	12.9	188.53352488533
10	43151	13	186.54881118883
10	43782	13.1	184.56419926042
10	44413	13.2	182.56851829476
10	45044	13.3	180.57219635234
10	45675	13.4	178.5759037196
10	46306	13.5	176.58584680752
10	46937	13.6	174.58458354863
10	47568	13.7	172.59485200196
10	48199	13.8	170.61100461532
10	48830	13.9	168.61897131773
10	49461	14	166.62488774807
10	50092	14.1	164.62990654163
10	50723	14.2	162.63340857228
10	51354	14.3	160.63309557101
10	51985	14.4	158.63894226955
10	52616	14.5	156.65307522699
10	53247	14.6	154.65929234574
10	53878	14.7	152.67532419798
10	54509	14.8	150.67393686177
10	55140	14.9	148.67669301728
10	55771	15	146.6856158618
10	56402	15.1	144.69578007044
10	57033	15.2	142.71075893113
10	57664	15.3	140.71169569932
10	58295	15.4	138.72612213433
10	58926	15.5	136.7273053264
10	59557	15.6	134.7272412476
10	60188	15.7	132.7419340078
10	60819	15.8	130.7440417435
10	61450	15.9	128.75737263933
10	62081	16	126.76004069504
10	62712	16.1	124.76474118043
10	63343	16.2	122.77051154436
10	63974	16.3	120.77723481338
10	64605	16.4	118.78259725
10	65236	16.5	116.7782947187
10	65867	16.6	114.77401450676
10	66498	16.7	112.77404927057
10	67129	16.8	110.77333621035
10	67760	16.9	108.76798456267
10	68391	17	106.7705055236
10	69022	17.1	104.77127417031
10	69653	17.2	102.77236967583
10	70284	17.3	100.78136303499
10	70915	17.4	98.776859725971
10	71546	17.5	96.776741353257
10	72177	17.6	94.779540064886
10	72808	17.7	92.784748611858
10	73439	17.8	90.776125319457
10	74070	17.9	88.779777801606
10	74701	18	86.787700201412
10	75332	18.1	84.788703964222
10	75963	18.2	82.789240702169
10	76594	18.3	80.798120992063
10	77225	18.4	78.798871796223
10	77856	18.5	76.798742181757
10	78487	18.6	74.792381601747
10	79118	18.7	72.787287409456
10	79749	18.8	70.783859746183
10	80380	18.9	68.785213443044
10	81011	19	66.792618134228
10	81642	19.1	64.800616345113
10	82273	19.2	62.807335748043
10	82904	19.3	60.81374964653
10	83535	19.4	58.806302948933
10	84166	19.5	56.814023650322
10	84797	19.6	54.822749222901
10	85428	19.7	52.816930051174
10	85942	19.8	50.818758751448
10	86456	19.9	48.808205161244
10	86970	20	46.796339767914
10	87484	20.1	44.79455279139
10	87998	20.2	42.786696670509
10	88512	20.3	40.787475424814
10	89026	20.4	38.779243223679
10	89540	20.5	36.772972643786
10	90054	20.6	34.764422937159
10	90568	20.7	32.763643512988
10	91082	20.8	30.758953875546
10	91596	20.9	28.755926829546
9	102	1.1	23.397598627787
9	133	1.2	23.397598627787
9	164	1.3	23.414978767002
9	195	1.4	23.432341848155
9	226	1.5	23.449682929497
9	257	1.6	23.467056710138
9	288	1.7	23.484506549186
9	319	1.8	23.501968323534
9	350	1.9	23.519436271191
9	381	2	23.537005696849
9	412	2.1	23.554489230597
9	476	2.2	23.57204063726
9	540	2.3	23.589590738975
9	604	2.4	23.607139541073
9	668	2.5	23.624760972154
9	732	2.6	23.642337087255
9	796	2.7	23.659927964774
9	860	2.8	23.677610382124
9	924	2.9	23.695326014214
9	988	3	23.713042183599
9	1052	3.1	23.730786382098
9	1161	3.2	23.748582841301
9	1270	3.3	23.76640120239
9	1379	3.4	23.78423128805
9	1488	3.5	23.802028487141
9	1597	3.6	23.819802289111
9	1706	3.7	23.837672475146
9	1815	3.8	23.855489276637
9	1924	3.9	23.873386965949
9	2033	4	23.891358404221
9	2142	4.1	23.909362637557
9	2308	4.2	23.927312494036
9	2474	4.3	23.945304486446
9	2640	4.4	23.963273948544
9	2806	4.5	23.981218957988
9	2972	4.6	23.999180834184
9	3138	4.7	24.017250939491
9	3304	4.8	24.035309498473
9	3470	4.9	24.053313521097
9	3636	5	24.071412754498
9	3802	5.1	24.089519740189
9	4037	5.2	24.107618757393
9	4272	5.3	24.125609732994
9	4507	5.4	24.143760812478
9	4742	5.5	24.161890376482
9	4977	5.6	24.179966789419
9	5212	5.7	24.198101797387
9	5447	5.8	24.216318341873
9	5682	5.9	24.234541219922
9	5917	6	24.25271818611
9	6152	6.1	24.270830956918
9	6468	6.2	24.288963545914
9	6784	6.3	24.307183452677
9	7100	6.4	24.325472551159
9	7416	6.5	24.343742430092
9	7732	6.6	24.361976382824
9	8048	6.7	24.380240899658
9	8364	6.8	24.398486394137
9	8680	6.9	24.416764253698
9	8996	7	24.435002142813
9	9312	7.1	24.453255081421
9	9721	7.2	24.471542112049
9	10130	7.3	24.489820599099
9	10539	7.4	24.508160779565
9	10948	7.5	24.526541799402
9	11357	7.6	24.544923958052
9	11766	7.7	24.563126028533
9	12175	7.8	24.581487111128
9	12584	7.9	24.599851583502
9	12993	8	24.618236581974
9	13402	8.1	24.636537647866
9	13916	8.2	24.65496942145
9	14430	8.3	24.673286589367
9	14944	8.4	24.691603173942
9	15458	8.5	24.70995528136
9	15972	8.6	24.728371485378
9	16486	8.7	24.746747976172
9	17000	8.8	24.76514751854
9	17514	8.9	24.783529013673
9	18028	9	24.802023153043
9	18542	9.1	24.820439102991
9	19173	9.2	24.838774526687
9	19804	9.3	24.857261668948
9	20435	9.4	24.87573436185
9	21066	9.5	24.894204078403
9	21697	9.6	24.912678519703
9	22328	9.7	24.931146571283
9	22959	9.8	24.949513621617
9	23590	9.9	24.967931844998
9	24221	10	24.98639450179
9	24852	10.1	25.004902160434
9	25483	10.2	25.023402787929
9	26114	10.3	25.041941052896
9	26745	10.4	25.060482243883
9	27376	10.5	25.078908296975
9	28007	10.6	25.097443482706
9	28638	10.7	25.115912491767
9	29269	10.8	25.13434777292
9	29900	10.9	25.152834079558
9	30531	11	25.171344967526
9	31162	11.1	25.189820315525
9	31793	11.2	25.208404574251
9	32424	11.3	25.226857370312
9	33055	11.4	25.245383822304
9	33686	11.5	25.263884592791
9	34317	11.6	25.282341195382
9	34948	11.7	25.300865323747
9	35579	11.8	25.319469151477
9	36210	11.9	25.337978109274
9	36841	12	25.35646642358
9	37472	12.1	25.374947263361
9	38103	12.2	25.393462424174
9	38734	12.3	25.412011998465
9	39365	12.4	25.430540211967
9	39996	12.5	25.449169496538
9	40627	12.6	25.467719452251
9	41258	12.7	25.486318248104
9	41889	12.8	25.504859794752
9	42520	12.9	25.523467428294
9	43151	13	25.541991823322
9	43782	13.1	25.560515268494
9	44413	13.2	25.579142026914
9	45044	13.3	25.597774767914
9	45675	13.4	25.61640723535
9	46306	13.5	25.634981501469
9	46937	13.6	25.653660362419
9	47568	13.7	25.672231591728
9	48199	13.8	25.690747901022
9	48830	13.9	25.709340613805
9	49461	14	25.727952462873
9	50092	14.1	25.746572690066
9	50723	14.2	25.765207074019
9	51354	14.3	25.783877065706
9	51985	14.4	25.802489565619
9	52616	14.5	25.821024725443
9	53247	14.6	25.839633768026
9	53878	14.7	25.858151204448
9	54509	14.8	25.876831223479
9	55140	14.9	25.895472569083
9	55771	15	25.91405635768
9	56402	15.1	25.93262855996
9	57033	15.2	25.951155824516
9	57664	15.3	25.969814151437
9	58295	15.4	25.988346572078
9	58926	15.5	26.007002598992
9	59557	15.6	26.025670267353
9	60188	15.7	26.044200202238
9	60819	15.8	26.062847599892
9	61450	15.9	26.081390245786
9	62081	16	26.100032413673
9	62712	16.1	26.118655611807
9	63343	16.2	26.137268824191
9	63974	16.3	26.155873142603
9	64605	16.4	26.174490162391
9	65236	16.5	26.193197390497
9	65867	16.6	26.211904410284
9	66498	16.7	26.230571156094
9	67129	16.8	26.249244881746
9	67760	16.9	26.267961901817
9	68391	17	26.286605442618
9	69022	17.1	26.305265338706
9	69653	17.2	26.323922184046
9	70284	17.3	26.342505314491
9	70915	17.4	26.361214416563
9	71546	17.5	26.379882591678
9	72177	17.6	26.398523540084
9	72808	17.7	26.417141996206
9	73439	17.8	26.435889552288
9	74070	17.9	26.454522531997
9	74701	18	26.473115658279
9	75332	18.1	26.491773359902
9	75963	18.2	26.510435420519
9	76594	18.3	26.5290196063
9	77225	18.4	26.547679668922
9	77856	18.5	26.566347948962
9	78487	18.6	26.585074385938
9	79118	18.7	26.60378900304
9	79749	18.8	26.622488065534
9	80380	18.9	26.641142501036
9	81011	19	26.65974045937
9	81642	19.1	26.678332878066
9	82273	19.2	26.696937232562
9	82904	19.3	26.715544438494
9	83535	19.4	26.734281012787
9	84166	19.5	26.752876021628
9	84797	19.6	26.771461651469
9	85428	19.7	26.790183035192
9	85942	19.8	26.808833037232
9	86456	19.9	26.827598609816
9	86970	20	26.846376426161
9	87484	20.1	26.865060175248
9	87998	20.2	26.883800570907
9	88512	20.3	26.902460372656
9	89026	20.4	26.921204278473
9	89540	20.5	26.93992987543
9	90054	20.6	26.958676744696
9	90568	20.7	26.977351089758
9	91082	20.8	26.996061930933
9	91596	20.9	27.014757254252
20	540	2.3	5.0087374473997
20	604	2.4	0.89039965580434
20	668	2.5	8.8480923438644
20	732	2.6	0.83720913736622
20	796	2.7	2.2495629890762
20	860	2.8	7.7423556027338
20	924	2.9	8.7093801334531
20	988	3	0.89922995472513
20	1052	3.1	6.1899819829788
20	1161	3.2	7.0085350487216
20	1270	3.3	4.820161524569
20	1379	3.4	2.5617624397973
20	1488	3.5	1.095941216549
20	1597	3.6	4.4828559730259
20	1706	3.7	7.9249024413979
20	1815	3.8	0.973
20	1924	3.9	4.333266196623
20	2033	4	8.7056472299035
20	2142	4.1	2.6359360890711
20	2308	4.2	3.2723286645041
20	2474	4.3	7.7368141941515
20	2640	4.4	2.0709000808108
20	2806	4.5	0.973
20	2972	4.6	3.7535293447829
20	3138	4.7	9.3573987469848
20	3304	4.8	0.86653589256749
20	3470	4.9	5.5502113140293
20	3636	5	4.9805724332938
20	3802	5.1	4.850469504604
20	4037	5.2	1.0779943197125
20	4272	5.3	0.973
20	4507	5.4	9.0710259748477
20	4742	5.5	7.4258212175262
20	4977	5.6	0.973
20	5212	5.7	3.376047197091
20	5447	5.8	6.7098236947033
20	5682	5.9	8.1551980713644
20	5917	6	0.973
20	6152	6.1	0.973
20	6468	6.2	8.2391101011893
20	6784	6.3	6.3712587633584
20	7100	6.4	3.3345446240209
20	7416	6.5	6.1111106772511
20	7732	6.6	0.973
20	8048	6.7	6.3604577372713
20	8364	6.8	0.973
20	8680	6.9	3.6638941616717
20	8996	7	1.4384499835082
20	9312	7.1	7.4123684962473
20	9721	7.2	1.2734958243162
20	10130	7.3	1.3772816718334
20	10539	7.4	7.1581002267762
20	10948	7.5	4.3308674397798
20	11357	7.6	3.4104339239684
20	11766	7.7	0.973
20	12175	7.8	6.7801250131454
20	12584	7.9	4.8383742607491
20	12993	8	6.3294607314585
20	13402	8.1	1.475197921847
20	13916	8.2	5.8455757805014
20	14430	8.3	0.973
20	14944	8.4	4.8538689095747
20	15458	8.5	4.7890285237511
20	15972	8.6	3.3879501003449
20	16486	8.7	1.4590974426631
20	17000	8.8	4.7384848626219
20	17514	8.9	2.5728825309982
20	18028	9	8.6438343879536
20	18542	9.1	1.7938550708924
20	19173	9.2	0.973
20	19804	9.3	7.5336762218855
20	20435	9.4	2.6571010493592
20	21066	9.5	2.2172138254705
20	21697	9.6	5.2452503260663
20	22328	9.7	2.9470580320979
20	22959	9.8	0.973
20	23590	9.9	7.974288732904
20	24221	10	1.4775197420037
20	24852	10.1	6.0914291710016
20	25483	10.2	6.140365283958
20	26114	10.3	1.7151450432532
20	26745	10.4	5.6167949535796
20	27376	10.5	0.973
20	28007	10.6	7.7675009455245
20	28638	10.7	0.973
20	29269	10.8	2.3347677119048
20	29900	10.9	1.1066532414054
20	30531	11	6.1773913567014
20	31162	11.1	0.67172900750906
20	31793	11.2	6.9056440193751
20	32424	11.3	0.973
20	33055	11.4	8.8628153962062
20	33686	11.5	2.2702543108193
20	34317	11.6	0.973
20	34948	11.7	3.6829873391363
20	35579	11.8	6.5824026468712
20	36210	11.9	4.1522816546189
20	36841	12	2.7158478849154
20	37472	12.1	1.6438534522599
20	38103	12.2	4.0654741086086
20	38734	12.3	2.839052387812
20	39365	12.4	1.5508026156737
20	39996	12.5	7.6935593137423
20	40627	12.6	0.973
20	41258	12.7	5.318288106062
20	41889	12.8	0.973
20	42520	12.9	6.7222235086422
20	43151	13	0.973
20	43782	13.1	1.1391031902619
20	44413	13.2	7.1055676053204
20	45044	13.3	7.4861684805259
20	45675	13.4	0.973
20	46306	13.5	5.4175065025445
20	46937	13.6	3.9896960994352
20	47568	13.7	1.7142085060468
20	48199	13.8	0.973
20	48830	13.9	9.4136484553582
20	49461	14	0.973
20	50092	14.1	5.9378926671277
20	50723	14.2	3.9873446457074
20	51354	14.3	5.3538754643839
20	51985	14.4	0.973
20	52616	14.5	0.973
20	53247	14.6	3.7268979402411
20	53878	14.7	1.2696094522771
20	54509	14.8	7.2456477960631
20	55140	14.9	0.973
20	55771	15	3.0208992967852
20	56402	15.1	3.7998333642923
20	57033	15.2	0.973
20	57664	15.3	11.509785586954
20	58295	15.4	0.973
20	58926	15.5	7.6624046423363
20	59557	15.6	3.999744087736
20	60188	15.7	0.973
20	60819	15.8	4.5146154258011
20	61450	15.9	2.6136539782245
20	62081	16	2.9358100701446
20	62712	16.1	4.1248000337803
20	63343	16.2	0.973
20	63974	16.3	2.5916337431595
20	64605	16.4	6.9220796069795
20	65236	16.5	7.4071120967196
20	65867	16.6	2.2759410697669
20	66498	16.7	0.973
20	67129	16.8	7.6832641563523
20	67760	16.9	2.9984521640228
20	68391	17	0.973
20	69022	17.1	4.606868715705
20	69653	17.2	1.628089061072
20	70284	17.3	2.7763186079819
20	70915	17.4	7.0602872513931
20	71546	17.5	2.6088972120178
20	72177	17.6	0.973
20	72808	17.7	6.9468936108466
20	73439	17.8	8.2559540936343
20	74070	17.9	0.973
20	74701	18	0.973
20	75332	18.1	4.7779324904905
20	75963	18.2	6.1328387827066
20	76594	18.3	0.973
20	77225	18.4	9.7639100005513
20	77856	18.5	2.1622046983737
20	78487	18.6	4.3016897866998
20	79118	18.7	1.0272603557053
20	79749	18.8	0.98123019514461
20	80380	18.9	5.6802819976117
20	81011	19	0.973
20	81642	19.1	0.973
20	82273	19.2	4.9176273663396
20	82904	19.3	7.3391614203319
20	83535	19.4	8.4020189435661
20	84166	19.5	0.973
20	84797	19.6	4.4208020096869
20	85428	19.7	8.6114853037375
20	85942	19.8	0.973
20	86456	19.9	6.3944061650378
20	86970	20	6.6244565630831
20	87484	20.1	0.973
20	87998	20.2	5.770647673512
20	88512	20.3	0.973
20	89026	20.4	11.912335160357
20	89540	20.5	0.973
20	90054	20.6	6.8504084947245
20	90568	20.7	0.973
20	91082	20.8	4.7864473508573
20	91596	20.9	2.49005806882
20	92110	21	3.4936482375021
20	92519	21.1	8.5643652667893
20	92928	21.2	2.0096395346371
20	93337	21.3	1.4073981416351
20	93746	21.4	0.973
20	94155	21.5	1.985807097168
20	94564	21.6	3.5341214057108
20	94973	21.7	4.8923112603473
20	95382	21.8	4.7684214737876
20	95791	21.9	3.6522027671275
20	96200	22	3.2058288668941
20	96609	22.1	0.973
20	97018	22.2	5.5271700389348
20	97427	22.3	5.5348551093903
19	540	2.3	0.62186663554886
19	604	2.4	-0.36693617848577
19	668	2.5	1.5300587859754
19	732	2.6	-0.3808281393599
19	796	2.7	-0.043001949218109
19	860	2.8	1.2575861922773
19	924	2.9	1.4701683127415
19	988	3	-0.36843698648415
19	1052	3.1	0.87284774117922
19	1161	3.2	1.0553807484403
19	1270	3.3	0.54125426862463
19	1379	3.4	0.015699880344222
19	1488	3.5	-0.32491178923863
19	1597	3.6	0.46188701546487
19	1706	3.7	1.2493963537636
19	1815	3.8	-0.58319041652073
19	1924	3.9	0.4210791945906
19	2033	4	1.4157684432936
19	2142	4.1	0.024062559478253
19	2308	4.2	0.16925327486884
19	2474	4.3	1.1802825902738
19	2640	4.4	-0.10869573031282
19	2806	4.5	-0.62189063758613
19	2972	4.6	0.27603668492159
19	3138	4.7	1.5364557794651
19	3304	4.8	-0.38379379504303
19	3470	4.9	0.67326213343957
19	3636	5	0.54127879495152
19	3802	5.1	0.5089416201529
19	4037	5.2	-0.33775808090443
19	4272	5.3	-0.89325644021098
19	4507	5.4	1.454255622346
19	4742	5.5	1.075528692647
19	4977	5.6	-0.69695032001949
19	5212	5.7	0.1746069988091
19	5447	5.8	0.91269167001364
19	5682	5.9	1.2223676540485
19	5917	6	-1.2583349795704
19	6152	6.1	-0.51728964051264
19	6468	6.2	1.2461387871533
19	6784	6.3	0.82571292694766
19	7100	6.4	0.15478371889653
19	7416	6.5	0.76161054059131
19	7732	6.6	-0.75783107112969
19	8048	6.7	0.81594371060927
19	8364	6.8	-0.46846789935795
19	8680	6.9	0.22487029122839
19	8996	7	-0.26397260233523
19	9312	7.1	1.0422565535985
19	9721	7.2	-0.30150637995494
19	10130	7.3	-0.27825406561998
19	10539	7.4	0.98317802307893
19	10948	7.5	0.36352640825946
19	11357	7.6	0.16212352657771
19	11766	7.7	-1.0615745395562
19	12175	7.8	0.89770372539661
19	12584	7.9	0.47152074462335
19	12993	8	0.79007177311645
19	13402	8.1	-0.26114857904521
19	13916	8.2	0.68236385970835
19	14430	8.3	-0.92979729906446
19	14944	8.4	0.47059071957474
19	15458	8.5	0.4539868220861
19	15972	8.6	0.15048352920211
19	16486	8.7	-0.26568864809089
19	17000	8.8	0.44124946285898
19	17514	8.9	-0.026052061348274
19	18028	9	1.2717967172936
19	18542	9.1	-0.19661537721564
19	19173	9.2	-1.2592264313441
19	19804	9.3	1.0373491852762
19	20435	9.4	-0.010575703190625
19	21066	9.5	-0.10482670921473
19	21697	9.6	0.54297743899443
19	22328	9.7	0.050019263595118
19	22959	9.8	-1.1779860694361
19	23590	9.9	1.1281407606315
19	24221	10	-0.26440606733154
19	24852	10.1	0.72122127658428
19	25483	10.2	0.72659122535676
19	26114	10.3	-0.21603805106846
19	26745	10.4	0.61246489550541
19	27376	10.5	-0.75995457325657
19	28007	10.6	1.0672017324145
19	28638	10.7	-0.73632175820119
19	29269	10.8	-0.084119874918862
19	29900	10.9	-0.34549678565199
19	30531	11	0.73258108159063
19	31162	11.1	-0.43870412939121
19	31793	11.2	0.88409202607195
19	32424	11.3	-0.79967650129841
19	33055	11.4	1.2947702527783
19	33686	11.5	-0.10126170873548
19	34317	11.6	-1.1285723318338
19	34948	11.7	0.20209091157863
19	35579	11.8	0.81336802365346
19	36210	11.9	0.29668021830144
19	36841	12	-0.0074061662847669
19	37472	12.1	-0.23388266005245
19	38103	12.2	0.27812906313862
19	38734	12.3	0.018467354017915
19	39365	12.4	-0.25369179624711
19	39996	12.5	1.0391914124582
19	40627	12.6	-0.57062439298775
19	41258	12.7	0.5386582899591
19	41889	12.8	-0.91292549058526
19	42520	12.9	0.8352511305538
19	43151	13	-0.48894940686186
19	43782	13.1	-0.34109437913081
19	44413	13.2	0.91543058901305
19	45044	13.3	0.98746914850231
19	45675	13.4	-1.0408635548731
19	46306	13.5	0.55645503415494
19	46937	13.6	0.25502429750919
19	47568	13.7	-0.22240458144534
19	48199	13.8	-1.3080481667977
19	48830	13.9	1.3955837063946
19	49461	14	-0.60491896952907
19	50092	14.1	0.66469293864124
19	50723	14.2	0.25371391168001
19	51354	14.3	0.53723154730605
19	51985	14.4	-0.55855802925525
19	52616	14.5	-0.48117289053522
19	53247	14.6	0.20036105821578
19	53878	14.7	-0.31552214031407
19	54509	14.8	0.93487656404609
19	55140	14.9	-0.73910994461105
19	55771	15	0.052230736479864
19	56402	15.1	0.21504346928573
19	57033	15.2	-0.96429945608097
19	57664	15.3	1.8233688070588
19	58295	15.4	-0.82064320878438
19	58926	15.5	1.017264165748
19	59557	15.6	0.25105164607453
19	60188	15.7	-1.2190607545528
19	60819	15.8	0.36283743146264
19	61450	15.9	-0.035344871596052
19	62081	16	0.032055194161664
19	62712	16.1	0.27986163384629
19	63343	16.2	-0.61429827999611
19	63974	16.3	-0.038905698583633
19	64605	16.4	0.86352610923772
19	65236	16.5	0.95712649941895
19	65867	16.6	-0.10987992481219
19	66498	16.7	-1.1553058820122
19	67129	16.8	1.0166528657284
19	67760	16.9	0.040831068918834
19	68391	17	-1.0877328367867
19	69022	17.1	0.3794155798272
19	69653	17.2	-0.24254170659027
19	70284	17.3	-0.0023017177596074
19	70915	17.4	0.88710449443646
19	71546	17.5	-0.039954644998907
19	72177	17.6	-1.1687520285446
19	72808	17.7	0.86610292911587
19	73439	17.8	1.1290939004392
19	74070	17.9	-0.75093431343429
19	74701	18	-1.2547686016551
19	75332	18.1	0.41602833943411
19	75963	18.2	0.69466161913148
19	76594	18.3	-1.0986785723997
19	77225	18.4	1.4477027164415
19	77856	18.5	-0.13340151962204
19	78487	18.6	0.31048548021566
19	79118	18.7	-0.36958756657349
19	79749	18.8	-0.3786460985782
19	80380	18.9	0.59797805843218
19	81011	19	-0.98165146925712
19	81642	19.1	-0.60462938889987
19	82273	19.2	0.44563150673628
19	82904	19.3	0.94461825304712
19	83535	19.4	1.1553998541699
19	84166	19.5	-2.2900164496942
19	84797	19.6	0.34093548587141
19	85428	19.7	1.2056839505284
19	85942	19.8	-0.69364637342119
19	86456	19.9	0.74464636925306
19	86970	20	0.78673421866263
19	87484	20.1	-0.67199864826009
19	87998	20.2	0.6104560397619
19	88512	20.3	-1.7025091596866
19	89026	20.4	1.8794312245174
19	89540	20.5	-1.2029844717661
19	90054	20.6	0.8353712907175
19	90568	20.7	-0.78925364215312
19	91082	20.8	0.40978970422877
19	91596	20.9	-0.066679454283936
19	92110	21	0.14114198764794
19	92519	21.1	1.1823810689443
19	92928	21.2	-0.16928049810229
19	93337	21.3	-0.2930718210526
19	93746	21.4	-0.54837967513592
19	94155	21.5	-0.17172740185636
19	94564	21.6	0.14893752944189
19	94973	21.7	0.42821344840341
19	95382	21.8	0.40045620214659
19	95791	21.9	0.16927032442766
19	96200	22	0.076894234959042
19	96609	22.1	-1.1972064166563
19	97018	22.2	0.55951007476541
19	97427	22.3	0.55770278011913
18	476	2.2	17.213342304994
18	540	2.3	17.275528968549
18	604	2.4	17.2388353507
18	668	2.5	17.391841229297
18	732	2.6	17.353758415361
18	796	2.7	17.34945822044
18	860	2.8	17.475216839667
18	924	2.9	17.622233670942
18	988	3	17.585389972293
18	1052	3.1	17.672674746411
18	1161	3.2	17.778212821255
18	1270	3.3	17.832338248118
18	1379	3.4	17.833908236152
18	1488	3.5	17.801417057228
18	1597	3.6	17.847605758775
18	1706	3.7	17.972545394151
18	1815	3.8	17.914226352499
18	1924	3.9	17.956334271958
18	2033	4	18.097911116287
18	2142	4.1	18.100317372235
18	2308	4.2	18.117242699722
18	2474	4.3	18.235270958749
18	2640	4.4	18.224401385718
18	2806	4.5	18.16221232196
18	2972	4.6	18.189815990452
18	3138	4.7	18.343461568398
18	3304	4.8	18.305082188894
18	3470	4.9	18.372408402238
18	3636	5	18.426536281733
18	3802	5.1	18.477430443748
18	4037	5.2	18.443654635658
18	4272	5.3	18.354328991637
18	4507	5.4	18.499754553871
18	4742	5.5	18.607307423136
18	4977	5.6	18.537612391134
18	5212	5.7	18.555073091015
18	5447	5.8	18.646342258016
18	5682	5.9	18.768579023421
18	5917	6	18.642745525464
18	6152	6.1	18.591016561413
18	6468	6.2	18.715630440128
18	6784	6.3	18.798201732823
18	7100	6.4	18.813680104713
18	7416	6.5	18.889841158772
18	7732	6.6	18.814058051659
18	8048	6.7	18.89565242272
18	8364	6.8	18.848805632784
18	8680	6.9	18.871292661907
18	8996	7	18.844895401673
18	9312	7.1	18.949121057033
18	9721	7.2	18.918970419038
18	10130	7.3	18.891145012476
18	10539	7.4	18.989462814784
18	10948	7.5	19.025815455609
18	11357	7.6	19.042027808267
18	11766	7.7	18.935870354312
18	12175	7.8	19.025640726851
18	12584	7.9	19.072792801314
18	12993	8	19.151799978625
18	13402	8.1	19.125685120721
18	13916	8.2	19.193921506692
18	14430	8.3	19.100941776785
18	14944	8.4	19.148000848743
18	15458	8.5	19.193399530951
18	15972	8.6	19.208447883871
18	16486	8.7	19.181879019062
18	17000	8.8	19.226003965348
18	17514	8.9	19.223398759213
18	18028	9	19.350578430943
18	18542	9.1	19.330916893221
18	19173	9.2	19.204994250087
18	19804	9.3	19.308729168614
18	20435	9.4	19.307671598295
18	21066	9.5	19.297188927374
18	21697	9.6	19.351486671273
18	22328	9.7	19.356488597633
18	22959	9.8	19.238689990689
18	23590	9.9	19.351504066752
18	24221	10	19.325063460019
18	24852	10.1	19.397185587678
18	25483	10.2	19.469844710213
18	26114	10.3	19.448240905106
18	26745	10.4	19.509487394657
18	27376	10.5	19.433491937331
18	28007	10.6	19.540212110573
18	28638	10.7	19.466579934753
18	29269	10.8	19.458167947261
18	29900	10.9	19.423618268696
18	30531	11	19.496876376855
18	31162	11.1	19.453005963916
18	31793	11.2	19.541415166523
18	32424	11.3	19.461447516393
18	33055	11.4	19.590924541671
18	33686	11.5	19.580798370797
18	34317	11.6	19.467941137614
18	34948	11.7	19.488150228772
18	35579	11.8	19.569487031137
18	36210	11.9	19.599155052967
18	36841	12	19.598414436339
18	37472	12.1	19.575026170333
18	38103	12.2	19.602839076647
18	38734	12.3	19.604685812049
18	39365	12.4	19.579316632424
18	39996	12.5	19.68323577367
18	40627	12.6	19.626173334371
18	41258	12.7	19.680039163367
18	41889	12.8	19.588746614309
18	42520	12.9	19.672271727364
18	43151	13	19.623376786678
18	43782	13.1	19.589267348765
18	44413	13.2	19.680810407666
18	45044	13.3	19.779557322516
18	45675	13.4	19.675470967029
18	46306	13.5	19.731116470445
18	46937	13.6	19.756618900196
18	47568	13.7	19.734378442051
18	48199	13.8	19.603573625371
18	48830	13.9	19.743131996011
18	49461	14	19.682640099058
18	50092	14.1	19.749109392922
18	50723	14.2	19.77448078409
18	51354	14.3	19.828203938821
18	51985	14.4	19.772348135895
18	52616	14.5	19.724230846841
18	53247	14.6	19.744266952663
18	53878	14.7	19.712714738632
18	54509	14.8	19.806202395036
18	55140	14.9	19.732291400575
18	55771	15	19.737514474223
18	56402	15.1	19.759018821152
18	57033	15.2	19.662588875544
18	57664	15.3	19.84492575625
18	58295	15.4	19.762861435371
18	58926	15.5	19.864587851946
18	59557	15.6	19.889693016553
18	60188	15.7	19.767786941098
18	60819	15.8	19.804070684244
18	61450	15.9	19.800536197085
18	62081	16	19.803741716501
18	62712	16.1	19.831727879885
18	63343	16.2	19.770298051886
18	63974	16.3	19.766407482028
18	64605	16.4	19.852760092951
18	65236	16.5	19.948472742893
18	65867	16.6	19.937484750412
18	66498	16.7	19.821954162211
18	67129	16.8	19.923619448784
18	67760	16.9	19.927702555675
18	68391	17	19.818929271997
18	69022	17.1	19.85687082998
18	69653	17.2	19.83261665932
18	70284	17.3	19.832386487545
18	70915	17.4	19.921096936988
18	71546	17.5	19.917101472488
18	72177	17.6	19.800226269634
18	72808	17.7	19.886836562545
18	73439	17.8	19.999745952589
18	74070	17.9	19.924652521246
18	74701	18	19.79917566108
18	75332	18.1	19.840778495024
18	75963	18.2	19.910244656937
18	76594	18.3	19.800376799697
18	77225	18.4	19.945147071341
18	77856	18.5	19.931806919379
18	78487	18.6	19.9628554674
18	79118	18.7	19.925896710743
18	79749	18.8	19.888032100885
18	80380	18.9	19.947829906729
18	81011	19	19.849664759803
18	81642	19.1	19.789201820913
18	82273	19.2	19.833764971586
18	82904	19.3	19.928226796891
18	83535	19.4	20.043766782308
18	84166	19.5	19.814765137339
18	84797	19.6	19.848858685926
18	85428	19.7	19.969427080979
18	85942	19.8	19.900062443637
18	86456	19.9	19.974527080562
18	86970	20	20.053200502428
18	87484	20.1	19.986000637602
18	87998	20.2	20.047046241578
18	88512	20.3	19.87679532561
18	89026	20.4	20.064738448061
18	89540	20.5	19.944440000885
18	90054	20.6	20.027977129957
18	90568	20.7	19.949051765741
18	91082	20.8	19.990030736164
18	91596	20.9	19.983362790736
18	92110	21	19.997476989501
18	92519	21.1	20.115715096395
18	92928	21.2	20.098787046585
18	93337	21.3	20.06947986448
18	93746	21.4	20.014641896966
18	94155	21.5	19.99746915678
18	94564	21.6	20.012362909724
18	94973	21.7	20.055184254565
18	95382	21.8	20.095229874779
18	95791	21.9	20.112156907222
18	96200	22	20.119846330718
18	96609	22.1	20.000125689053
18	97018	22.2	20.056076696529
18	97427	22.3	20.111846974541
17	412	2.1	416.30025728988
17	476	2.2	416.30025728988
17	540	2.3	414.57900989896
17	604	2.4	412.85154415542
17	668	2.5	411.12774758854
17	732	2.6	409.38865120571
17	796	2.7	407.65336291214
17	860	2.8	405.91850461637
17	924	2.9	404.17107109312
17	988	3	402.40893662842
17	1052	3.1	400.65048634772
17	1161	3.2	398.88330802995
17	1270	3.3	397.10557643712
17	1379	3.4	395.32243257467
17	1488	3.5	393.53913172133
17	1597	3.6	391.75907982197
17	1706	3.7	389.97440928547
17	1815	3.8	388.17724541574
17	1924	3.9	386.38591315597
17	2033	4	384.59037031667
17	2142	4.1	382.78067050719
17	2308	4.2	380.97073008425
17	2474	4.3	379.15909721395
17	2640	4.4	377.33566211318
17	2806	4.5	375.51331391489
17	2972	4.6	373.69718430923
17	3138	4.7	371.87829447598
17	3304	4.8	370.04404086006
17	3470	4.9	368.21362498847
17	3636	5	366.37647683521
17	3802	5.1	364.53391616706
17	4037	5.2	362.68626633947
17	4272	5.3	360.84199392229
17	4507	5.4	359.00665361887
17	4742	5.5	357.15677149289
17	4977	5.6	355.29613462257
17	5212	5.7	353.44246690385
17	5447	5.8	351.58705320323
17	5682	5.9	349.72251304635
17	5917	6	347.84574982961
17	6152	6.1	345.98156932784
17	6468	6.2	344.12256146151
17	6784	6.3	342.25109283598
17	7100	6.4	340.37136749773
17	7416	6.5	338.49009440039
17	7732	6.6	336.60120558187
17	8048	6.7	334.71989469173
17	8364	6.8	332.83042477613
17	8680	6.9	330.94563930319
17	8996	7	329.05860524077
17	9312	7.1	327.17421077121
17	9721	7.2	325.27939426192
17	10130	7.3	323.38759266432
17	10539	7.4	321.498573467
17	10948	7.5	319.59972298546
17	11357	7.6	317.69723742323
17	11766	7.7	315.79313070752
17	12175	7.8	313.89963920165
17	12584	7.9	311.99717111142
17	12993	8	310.08998805161
17	13402	8.1	308.17490467265
17	13916	8.2	306.26243264774
17	14430	8.3	304.34313732848
17	14944	8.4	302.43313951314
17	15458	8.5	300.518436028
17	15972	8.6	298.59919290368
17	16486	8.7	296.67844501999
17	17000	8.8	294.76035388874
17	17514	8.9	292.83785048546
17	18028	9	290.91560758966
17	18542	9.1	288.98064736829
17	19173	9.2	287.0476532015
17	19804	9.3	285.12725066376
17	20435	9.4	283.1964751575
17	21066	9.5	281.26580540293
17	21697	9.6	279.33618386258
17	22328	9.7	277.40113282176
17	22959	9.8	275.46558161354
[...]
68	103001	24.7	-0.2464434645735
68	103167	24.8	0.25770077991247
68	103333	24.9	0.5007682246546
68	103499	25	0.033908193851566
68	103665	25.1	-0.9448827789279
68	103831	25.2	1.5418673681126
68	103997	25.3	-0.58587198039028
68	104163	25.4	0.84852800663509
68	104272	25.5	-1.9051132549992
68	104381	25.6	0.99790225125627
68	104490	25.7	0.029191179798111
68	104554	25.8	-0.34484168055311
68	104618	25.9	-0.74891343365341
68	104682	26	1.7043938864224
68	104746	26.1	-0.14966150248355
68	104810	26.2	-0.72657926148032
68	104874	26.3	0.90440929699554
68	104938	26.4	-0.96958845876419
68	105002	26.5	0.80636427074609
68	105066	26.6	0.49513960095691
68	105130	26.7	-0.92453932811328
68	105194	26.8	0.50328845128373
68	105225	26.9	-1.2900326977334
68	105256	27	2.2920706839301
68	105287	27.1	-0.17379626793669
68	105318	27.2	-0.36075729399037
68	105349	27.3	-0.063944348599208
68	105380	27.4	0.83737361774773
68	105411	27.5	-1.7260024034507
68	105442	27.6	0.37103387872932
68	105473	27.7	0.54422107075276
68	105504	27.8	-0.0051605825007428
68	105535	27.9	0.097284759343665
68	105566	28	0.11055704925365
68	105597	28.1	-0.50538004171319
68	105628	28.2	-0.35282160210883
68	105638	28.3	1.1015732211241
68	105648	28.4	0.57345459780191
68	105658	28.5	-0.15016263667494
68	105668	28.6	-0.31405915271023
68	105678	28.7	-0.35396701851862
68	105688	28.8	0.79964523485398
68	105698	28.9	-0.83401484147181
68	105708	29	0.25095175276512
68	105718	29.1	0.96496617370285
68	105728	29.2	-0.38169868045951
68	105738	29.3	-0.19860131968745
68	105748	29.4	-0.53462126448284
68	105758	29.5	1.0510245737387
67	19173	9.2	16.913750302152
67	19804	9.3	16.992757905855
67	20435	9.4	17.087326746743
67	21066	9.5	17.141589043752
67	21697	9.6	17.186077107219
67	22328	9.7	17.274631479239
67	22959	9.8	17.222230892476
67	23590	9.9	17.306275675064
67	24221	10	17.360295251551
67	24852	10.1	17.471499371951
67	25483	10.2	17.483647172849
67	26114	10.3	17.548506755957
67	26745	10.4	17.556245959329
67	27376	10.5	17.527067116474
67	28007	10.6	17.646840241918
67	28638	10.7	17.524578350644
67	29269	10.8	17.756149573211
67	29900	10.9	17.715801211735
67	30531	11	17.845130552298
67	31162	11.1	17.789555293441
67	31793	11.2	17.864363942027
67	32424	11.3	17.978821868971
67	33055	11.4	17.944674408345
67	33686	11.5	17.944375023648
67	34317	11.6	18.013608238639
67	34948	11.7	18.008042028854
67	35579	11.8	18.078114072448
67	36210	11.9	17.972545378618
67	36841	12	18.061675793243
67	37472	12.1	18.144761187952
67	38103	12.2	18.105313193542
67	38734	12.3	18.240455595656
67	39365	12.4	18.217897682127
67	39996	12.5	18.211453073507
67	40627	12.6	18.276456430305
67	41258	12.7	18.336445808031
67	41889	12.8	18.437397807249
67	42520	12.9	18.331547997024
67	43151	13	18.437242906515
67	43782	13.1	18.449759744402
67	44413	13.2	18.344258992502
67	45044	13.3	18.465410177574
67	45675	13.4	18.649039851081
67	46306	13.5	18.501501014638
67	46937	13.6	18.470216938676
67	47568	13.7	18.566147560619
67	48199	13.8	18.541622025771
67	48830	13.9	18.56095135303
67	49461	14	18.647706305709
67	50092	14.1	18.642032877332
67	50723	14.2	18.558118856291
67	51354	14.3	18.679453282758
67	51985	14.4	18.841778337668
67	52616	14.5	18.783386283898
67	53247	14.6	18.82201539517
67	53878	14.7	18.82036059829
67	54509	14.8	18.856497501748
67	55140	14.9	18.923313323232
67	55771	15	18.906800791042
67	56402	15.1	18.93295900301
67	57033	15.2	19.008412119849
67	57664	15.3	18.899545324665
67	58295	15.4	18.949747466235
67	58926	15.5	18.940617937079
67	59557	15.6	19.032397266008
67	60188	15.7	18.889657616473
67	60819	15.8	19.039727620317
67	61450	15.9	19.052656804074
67	62081	16	18.964509349784
67	62712	16.1	19.022167330358
67	63343	16.2	19.094588764655
67	63974	16.3	19.121674772541
67	64605	16.4	19.2157639502
67	65236	16.5	19.121833363985
67	65867	16.6	19.244941358566
67	66498	16.7	19.220127044304
67	67129	16.8	19.206056699264
67	67760	16.9	19.102402446283
67	68391	17	19.315463952845
67	69022	17.1	19.14026622269
67	69653	17.2	19.260964264684
67	70284	17.3	19.129289241183
67	70915	17.4	19.244858895844
67	71546	17.5	19.183734341167
67	72177	17.6	19.290214379058
67	72808	17.7	19.142388697164
67	73439	17.8	19.368424849424
67	74070	17.9	19.436036423846
67	74701	18	19.338853419221
67	75332	18.1	19.329705916195
67	75963	18.2	19.436768536893
67	76594	18.3	19.301374873982
67	77225	18.4	19.337313314728
67	77856	18.5	19.308762536682
67	78487	18.6	19.237167468297
67	79118	18.7	19.325404074199
67	79749	18.8	19.407653375938
67	80380	18.9	19.534739235893
67	81011	19	19.363162248868
67	81642	19.1	19.459318852083
67	82273	19.2	19.491845511106
67	82904	19.3	19.385043069411
67	83535	19.4	19.499289038684
67	84166	19.5	19.489663725412
67	84797	19.6	19.495596448764
67	85428	19.7	19.517355916361
67	85942	19.8	19.459330356505
67	86456	19.9	19.547018881528
67	86970	20	19.56387254737
67	87484	20.1	19.467908667879
67	87998	20.2	19.476931196169
67	88512	20.3	19.626170667007
67	89026	20.4	19.514094273662
67	89540	20.5	19.557784902474
67	90054	20.6	19.681491791047
67	90568	20.7	19.500369045466
67	91082	20.8	19.579726218958
67	91596	20.9	19.517039421167
67	92110	21	19.564830851637
67	92519	21.1	19.713830083847
67	92928	21.2	19.570996360291
67	93337	21.3	19.606695784932
67	93746	21.4	19.731945688115
67	94155	21.5	19.591602902808
67	94564	21.6	19.693211982271
67	94973	21.7	19.722640319891
67	95382	21.8	19.653388663906
67	95791	21.9	19.64063010209
67	96200	22	19.635583433578
67	96609	22.1	19.621987225267
67	97018	22.2	19.578174130252
67	97427	22.3	19.613695337888
67	97836	22.4	19.66008969074
67	98152	22.5	19.804955962465
67	98468	22.6	19.755931277238
67	98784	22.7	19.632185190719
67	99019	22.8	19.852339239598
67	99254	22.9	19.802050943607
67	99489	23	19.748441359896
67	99724	23.1	19.712085578964
67	99959	23.2	19.784411030346
67	100194	23.3	19.762958849727
67	100429	23.4	19.749900937147
67	100664	23.5	19.710007233814
67	100899	23.6	19.777663883177
67	101134	23.7	19.844747180707
67	101369	23.8	19.716279322306
67	101604	23.9	19.743946157617
67	101839	24	19.792062147613
67	102005	24.1	19.745142360121
67	102171	24.2	19.849548369065
67	102337	24.3	19.723385945582
67	102503	24.4	19.898428001108
67	102669	24.5	19.814525039707
67	102835	24.6	19.826808620044
67	103001	24.7	19.802164273586
67	103167	24.8	19.827934351578
67	103333	24.9	19.878011174043
67	103499	25	19.881401993428
67	103665	25.1	19.786913715535
67	103831	25.2	19.941100452347
67	103997	25.3	19.882513254308
67	104163	25.4	19.967366054971
67	104272	25.5	19.776854729471
67	104381	25.6	19.876644954597
67	104490	25.7	19.879564072577
67	104554	25.8	19.845079904521
67	104618	25.9	19.770188561156
67	104682	26	19.940627949798
67	104746	26.1	19.92566179955
67	104810	26.2	19.853003873402
67	104874	26.3	19.943444803101
67	104938	26.4	19.846485957225
67	105002	26.5	19.9271223843
67	105066	26.6	19.976636344395
67	105130	26.7	19.884182411584
67	105194	26.8	19.934511256712
67	105225	26.9	19.805507986939
67	105256	27	20.034715055332
67	105287	27.1	20.017335428538
67	105318	27.2	19.981259699139
67	105349	27.3	19.974865264279
67	105380	27.4	20.058602626054
67	105411	27.5	19.886002385709
67	105442	27.6	19.923105773582
67	105473	27.7	19.977527880657
67	105504	27.8	19.977011822407
67	105535	27.9	19.986740298342
67	105566	28	19.997796003267
67	105597	28.1	19.947257999096
67	105628	28.2	19.911975838885
67	105638	28.3	20.022133160997
67	105648	28.4	20.079478620777
67	105658	28.5	20.06446235711
67	105668	28.6	20.033056441839
67	105678	28.7	19.997659739987
67	105688	28.8	20.077624263472
67	105698	28.9	19.994222779325
67	105708	29	20.019317954602
67	105718	29.1	20.115814571972
67	105728	29.2	20.077644703926
67	105738	29.3	20.057784571957
67	105748	29.4	20.004322445509
67	105758	29.5	20.109424902883
66	18542	9.1	416.34012864494
66	19173	9.2	416.34012864494
66	19804	9.3	414.64879627881
66	20435	9.4	412.9495633516
66	21066	9.5	411.24087377885
66	21697	9.6	409.52675811328
66	22328	9.7	407.80819375357
66	22959	9.8	406.08077418004
66	23590	9.9	404.358594533
66	24221	10	402.62801061971
66	24852	10.1	400.89202488503
66	25483	10.2	399.14491901881
66	26114	10.3	397.39659840315
66	26745	10.4	395.64179199278
66	27376	10.5	393.8862116816
66	28007	10.6	392.1335491811
66	28638	10.7	390.36890967017
66	29269	10.8	388.61649603998
66	29900	10.9	386.84092587165
66	30531	11	385.0693904377
66	31162	11.1	383.28492239592
66	31793	11.2	381.50601173983
66	32424	11.3	379.71962040759
66	33055	11.4	377.92178357137
66	33686	11.5	376.12736139508
66	34317	11.6	374.3329691565
66	34948	11.7	372.53165377105
66	35579	11.8	370.73089499255
66	36210	11.9	368.92312918644
66	36841	12	367.12591998342
66	37472	12.1	365.31979796377
66	38103	12.2	363.50536761422
66	38734	12.3	361.69488196461
66	39365	12.4	359.87088241568
66	39996	12.5	358.0491386012
66	40627	12.6	356.22803923133
66	41258	12.7	354.40043968974
66	41889	12.8	352.5668413617
66	42520	12.9	350.72314808839
66	43151	13	348.89003952909
66	43782	13.1	347.04636174546
66	44413	13.2	345.20143230961
66	45044	13.3	343.36705268284
66	45675	13.4	341.52055824315
66	46306	13.5	339.65570129931
66	46937	13.6	337.80559786695
66	47568	13.7	335.95862276328
66	48199	13.8	334.10205483939
66	48830	13.9	332.24793940713
66	49461	14	330.39189109089
66	50092	14.1	328.52716749822
66	50723	14.2	326.66301123408
66	51354	14.3	324.80724616038
66	51985	14.4	322.93934795008
66	52616	14.5	321.05521764376
66	53247	14.6	319.17692639552
66	53878	14.7	317.29477233359
66	54509	14.8	315.41278374717
66	55140	14.9	313.52718156157
66	55771	15	311.63489796235
66	56402	15.1	309.74426557471
66	57033	15.2	307.85101743184
66	57664	15.3	305.95022416762
66	58295	15.4	304.06031730831
66	58926	15.5	302.16539036147
66	59557	15.6	300.27137634452
66	60188	15.7	298.36818462619
66	60819	15.8	296.47926651276
66	61450	15.9	294.57534177748
66	62081	16	292.67012415644
66	62712	16.1	290.77372105849
66	63343	16.2	288.87155230792
66	63974	16.3	286.96214159659
66	64605	16.4	285.0500223528
66	65236	16.5	283.12849442858
66	65867	16.6	281.21635932605
66	66498	16.7	279.29191373459
66	67129	16.8	277.36994951197
66	67760	16.9	275.44939228835
66	68391	17	273.53920022858
66	69022	17.1	271.60770255558
66	69653	17.2	269.69372421367
66	70284	17.3	267.76767637202
66	70915	17.4	265.85479570057
66	71546	17.5	263.93035835518
66	72177	17.6	262.01203331107
66	72808	17.7	260.08306053176
66	73439	17.8	258.16886994776
66	74070	17.9	256.2320763187
66	74701	18	254.28852170274
66	75332	18.1	252.3546851421
66	75963	18.2	250.4217633087
66	76594	18.3	248.47813548328
66	77225	18.4	246.54804668263
66	77856	18.5	244.61436412856
66	78487	18.6	242.68353658028
66	79118	18.7	240.75986835824
66	79749	18.8	238.82737669818
66	80380	18.9	236.88666031542
66	81011	19	234.93323566723
66	81642	19.1	232.99696828494
66	82273	19.2	231.05108548489
66	82904	19.3	229.10195010098
66	83535	19.4	227.16349469184
66	84166	19.5	225.21361497395
66	84797	19.6	223.2646977631
66	85428	19.7	221.31518729489
66	85942	19.8	219.36350093481
66	86456	19.9	217.41761698434
66	86970	20	215.46296440256
66	87484	20.1	213.50662649671
66	87998	20.2	211.55988473674
66	88512	20.3	209.61224074671
66	89026	20.4	207.64967318604
66	89540	20.5	205.698312982
66	90054	20.6	203.74258382528
66	90568	20.7	201.77448429175
66	91082	20.8	199.82449657591
66	91596	20.9	197.86657334289
66	92110	21	195.91491863152
66	92519	21.1	193.95848489766
66	92928	21.2	191.98715161642
66	93337	21.3	190.03010134725
66	93746	21.4	188.06948122566
66	94155	21.5	186.09633642969
66	94564	21.6	184.13722555825
66	94973	21.7	182.16795403516
66	95382	21.8	180.19573975254
66	95791	21.9	178.23045046084
66	96200	22	176.26643699313
66	96609	22.1	174.30292817955
66	97018	22.2	172.3407789525
66	97427	22.3	170.38301092443
66	97836	22.4	168.42169086521
66	98152	22.5	166.45573148772
66	98468	22.6	164.47528584848
66	98784	22.7	162.4997425541
66	99019	22.8	160.53657355623
66	99254	22.9	158.5513897088
66	99489	23	156.57123456412
66	99724	23.1	154.59644024259
66	99959	23.2	152.62528140744
66	100194	23.3	150.64689020958
66	100429	23.4	148.67064417568
66	100664	23.5	146.6957039001
66	100899	23.6	144.72475289422
66	101134	23.7	142.74703639407
66	101369	23.8	140.76261173338
66	101604	23.9	138.79103353447
66	101839	24	136.81668872183
66	102005	24.1	134.83753243155
66	102171	24.2	132.86306800167
66	102337	24.3	130.87816323425
66	102503	24.4	128.90587439094
66	102669	24.5	126.91608178362
66	102835	24.6	124.93467926079
66	103001	24.7	122.95204841092
66	103167	24.8	120.97188193352
66	103333	24.9	118.98913851333
66	103499	25	117.00138753721
66	103665	25.1	115.01329748771
66	103831	25.2	113.03465602765
66	103997	25.3	111.04059628284
66	104163	25.4	109.05239511005
66	104272	25.5	107.05570887124
66	104381	25.6	105.07807328441
66	104490	25.7	103.09045892679
66	104554	25.8	101.10255266474
66	104618	25.9	99.118094732502
66	104682	26	97.141125745695
66	104746	26.1	95.147113249948
66	104810	26.2	93.154597331475
66	104874	26.3	91.16934702234
66	104938	26.4	89.175052848369
66	105002	26.5	87.190454314411
66	105066	26.6	85.197792341147
66	105130	26.7	83.200179096769
66	105194	26.8	81.211811012463
66	105225	26.9	79.218410170596
66	105256	27	77.237909330302
66	105287	27.1	75.234488361332
66	105318	27.2	73.232805311201
66	105349	27.3	71.234729743012
66	105380	27.4	69.237293602179
66	105411	27.5	67.231483936392
66	105442	27.6	65.242933859264
66	105473	27.7	63.25067353694
66	105504	27.8	61.252971141185
66	105535	27.9	59.255320349954
66	105566	28	57.256696735669
66	105597	28.1	55.256967578779
66	105628	28.2	53.262292094827
66	105638	28.3	51.271144737898
66	105648	28.4	49.268981926624
66	105658	28.5	47.261084714023
66	105668	28.6	45.254689089911
66	105678	28.7	43.251433978106
66	105688	28.8	41.251718447201
66	105698	28.9	39.244006665653
66	105708	29	37.244634822143
66	105718	29.1	35.242753524408
66	105728	29.2	33.231222808343
66	105738	29.3	31.223508982802
66	105748	29.4	29.217781120361
66	105758	29.5	27.217399335709
65	18542	9.1	26.697598627787
65	19173	9.2	26.697598627787
65	19804	9.3	26.713384339652
65	20435	9.4	26.729243789822
65	21066	9.5	26.745191501698
65	21697	9.6	26.761189856925
65	22328	9.7	26.777229733148
65	22959	9.8	26.793352257735
65	23590	9.9	26.809425876518
65	24221	10	26.825577934836
65	24852	10.1	26.841780409973
65	25483	10.2	26.858086672629
65	26114	10.3	26.874404272907
65	26745	10.4	26.89078240705
65	27376	10.5	26.907167764241
65	28007	10.6	26.923525888631
65	28638	10.7	26.939995798048
65	29269	10.8	26.956351599657
65	29900	10.9	26.972923528176
65	30531	11	26.98945779931
65	31162	11.1	27.006112774349
65	31793	11.2	27.022715880641
65	32424	11.3	27.039388806326
65	33055	11.4	27.05616855633
65	33686	11.5	27.072916436289
65	34317	11.6	27.089664036831
65	34948	11.7	27.106476253177
65	35579	11.8	27.123283274544
65	36210	11.9	27.1401556946
65	36841	12	27.156929586715
65	37472	12.1	27.173786664819
65	38103	12.2	27.190721287055
65	38734	12.3	27.207619092225
65	39365	12.4	27.224643026668
65	39996	12.5	27.241645907665
65	40627	12.6	27.258642773867
65	41258	12.7	27.27570030812
65	41889	12.8	27.292813830845
65	42520	12.9	27.310021572719
65	43151	13	27.327130524285
65	43782	13.1	27.34433812159
65	44413	13.2	27.361557400939
65	45044	13.3	27.378678215759
65	45675	13.4	27.395912101759
65	46306	13.5	27.413317370513
65	46937	13.6	27.430584940323
65	47568	13.7	27.447823312504
65	48199	13.8	27.46515121735
65	48830	13.9	27.482456232358
65	49461	14	27.499779287551
65	50092	14.1	27.517183311698
65	50723	14.2	27.534582040799
65	51354	14.3	27.551902452404
65	51985	14.4	27.56933610621
65	52616	14.5	27.586921259032
65	53247	14.6	27.604451914175
65	53878	14.7	27.622018622117
65	54509	14.8	27.639583785625
65	55140	14.9	27.657182675938
65	55771	15	27.674843925887
65	56402	15.1	27.692489764583
65	57033	15.2	27.710160016906
65	57664	15.3	27.727900690109
65	58295	15.4	27.745539757231
65	58926	15.5	27.763225678336
65	59557	15.6	27.780903078791
65	60188	15.7	27.798666137485
65	60819	15.8	27.816295976346
65	61450	15.9	27.834065876506
65	62081	16	27.851847843557
65	62712	16.1	27.869547542022
65	63343	16.2	27.88730105305
65	63974	16.3	27.905122155469
65	64605	16.4	27.922968537433
65	65236	16.5	27.940902733431
65	65867	16.6	27.95874926341
65	66498	16.7	27.976710690871
65	67129	16.8	27.994648958973
65	67760	16.9	28.012574095132
65	68391	17	28.03040249011
65	69022	17.1	28.048429736761
65	69653	17.2	28.066293470245
65	70284	17.3	28.084269851988
65	70915	17.4	28.102123340584
65	71546	17.5	28.120084691083
65	72177	17.6	28.137988993641
65	72808	17.7	28.155992674703
65	73439	17.8	28.173858389106
65	74070	17.9	28.191935064503
65	74701	18	28.210074842216
65	75332	18.1	28.228123918407
65	75963	18.2	28.246164457175
65	76594	18.3	28.264304918174
65	77225	18.4	28.282319015398
65	77856	18.5	28.3003666542
65	78487	18.6	28.318387646376
65	79118	18.7	28.336341818416
65	79749	18.8	28.354378342246
65	80380	18.9	28.372491629879
65	81011	19	28.390723527562
65	81642	19.1	28.408795291339
65	82273	19.2	28.426956798693
65	82904	19.3	28.445148663387
65	83535	19.4	28.463240848675
65	84166	19.5	28.481439660461
65	84797	19.6	28.49962948888
65	85428	19.7	28.517824854347
65	85942	19.8	28.536040528066
65	86456	19.9	28.554202046157
65	86970	20	28.572445404512
65	87484	20.1	28.590704492501
65	87998	20.2	28.608874016785
65	88512	20.3	28.627051961852
65	89026	20.4	28.645369193077
65	89540	20.5	28.663581822684
65	90054	20.6	28.681835229035
65	90568	20.7	28.700204091821
65	91082	20.8	28.718403911584
65	91596	20.9	28.736677795907
65	92110	21	28.754893174239
65	92519	21.1	28.773153156619
65	92928	21.2	28.791552200941
65	93337	21.3	28.809817937631
65	93746	21.4	28.828116992824
65	94155	21.5	28.846532944555
65	94564	21.6	28.864817913464
65	94973	21.7	28.883197714779
65	95382	21.8	28.901604981751
65	95791	21.9	28.919947615707
65	96200	22	28.938278342016
65	96609	22.1	28.956604358236
65	97018	22.2	28.974917685028
65	97427	22.3	28.993190120777
65	97836	22.4	29.011495708697
65	98152	22.5	29.029844596765
65	98468	22.6	29.048328689455
65	98784	22.7	29.066767027091
65	99019	22.8	29.08508987171
65	99254	22.9	29.103618187517
65	99489	23	29.122099568935
65	99724	23.1	29.140530916183
65	99959	23.2	29.158928332347
65	100194	23.3	29.17739325032
65	100429	23.4	29.195838146835
65	100664	23.5	29.214270856317
65	100899	23.6	29.232666332748
65	101134	23.7	29.251124953565
65	101369	23.8	29.269646183655
65	101604	23.9	29.288047513867
65	101839	24	29.306474665715
65	102005	24.1	29.324946724525
65	102171	24.2	29.343374992795
65	102337	24.3	29.361900703865
65	102503	24.4	29.380308666734
65	102669	24.5	29.398879997479
65	102835	24.6	29.417373021051
65	103001	24.7	29.435877508967
65	103167	24.8	29.454358996156
65	103333	24.9	29.472864534724
65	103499	25	29.491416810313
65	103665	25.1	29.509972250575
65	103831	25.2	29.52843950432
65	103997	25.3	29.547050661538
65	104163	25.4	29.565607138947
65	104272	25.5	29.584242810021
65	104381	25.6	29.602700675649
65	104490	25.7	29.621251676137
65	104554	25.8	29.639805401056
65	104618	25.9	29.658326941679
65	104682	26	29.67677858573
65	104746	26.1	29.695389301958
65	104810	26.2	29.713986050182
65	104874	26.3	29.732514986296
65	104938	26.4	29.751128331511
65	105002	26.5	29.769651184413
65	105066	26.6	29.788249295809
65	105130	26.7	29.806893618904
65	105194	26.8	29.825451654148
65	105225	26.9	29.844056661627
65	105256	27	29.862541269525
65	105287	27.1	29.881239797854
65	105318	27.2	29.899922105664
65	105349	27.3	29.918570743765
65	105380	27.4	29.937213413899
65	105411	27.5	29.95593423665
65	105442	27.6	29.974493970488
65	105473	27.7	29.993088333157
65	105504	27.8	30.011733488327
65	105535	27.9	30.030378161858
65	105566	28	30.049031915037
65	105597	28.1	30.067695986576
65	105628	28.2	30.086312890672
65	105638	28.3	30.104896865701
65	105648	28.4	30.123583651266
65	105658	28.5	30.142323957718
65	105668	28.6	30.161050249394
65	105678	28.7	30.179747229728
65	105688	28.8	30.198411174092
65	105698	28.9	30.21714974986
65	105708	29	30.235810486487
65	105718	29.1	30.254494644602
65	105728	29.2	30.273268863631
65	105738	29.3	30.292007458476
65	105748	29.4	30.310727517732
65	105758	29.5	30.329397680443
