version 2
run General-0-20170117-16:04:49-23343
attr configname General
attr datetime 20170117-16:04:49
attr experiment General
attr inifile omnetpp.ini
attr iterationvars ""
attr iterationvars2 $repetition=0
attr measurement ""
attr network com.liborio.locvanet.LocScenario
attr processid 23343
attr repetition 0
attr replication #0
attr resultdir results
attr runnumber 0
attr seedset 0
param **.coreDebug false
param **.debug false
param *.**.nic.mac1609_4.bitrate 18Mbps
param *.**.nic.mac1609_4.txPower 20mW
param *.**.nic.mac1609_4.useServiceChannel false
param *.**.nic.phy80211p.analogueModels "xmldoc(\"config_splm.xml\")"
param *.**.nic.phy80211p.decider "xmldoc(\"config_splm.xml\")"
param *.**.nic.phy80211p.sensitivity -89dBm
param *.**.nic.phy80211p.thermalNoise -110dBm
param *.**.nic.phy80211p.usePropagationDelay true
param *.**.nic.phy80211p.useThermalNoise true
param *.annotations.draw false
param *.connectionManager.alpha 2.0
param *.connectionManager.carrierFrequency "5.890e9 Hz"
param *.connectionManager.pMax 20mW
param *.connectionManager.sat -89dBm
param *.connectionManager.sendDirect true
param *.manager.autoShutdown true
param *.manager.host "\"localhost\""
param *.manager.launchConfig "xmldoc(\"dmat.launchd.xml\")"
param *.manager.margin 25
param *.manager.moduleDisplayString "\"\""
param *.manager.moduleName "\"node\""
param *.manager.moduleType "\"org.car2x.veins.nodes.Car\""
param *.manager.port 9999
param *.manager.updateInterval 0.1s
param *.node[*].appl.beaconInterval 0.1s
param *.node[*].appl.beaconPriority 3
param *.node[*].appl.dataOnSch false
param *.node[*].appl.dataPriority 2
param *.node[*].appl.debug false
param *.node[*].appl.headerLength "256 bit"
param *.node[*].appl.maxOffset 0.005s
param *.node[*].appl.sendBeacons true
param *.node[*].appl.sendData true
param *.node[*].applType "\"LocAppCom\""
param *.node[*].mobilityType "\"TraCIMobility\""
param *.node[*].mobilityType.debug true
param *.node[*].veinsmobility.x 0
param *.node[*].veinsmobility.y 0
param *.node[*].veinsmobility.z 1.895
param *.node[*].veinsmobilityType "\"org.car2x.veins.modules.mobility.traci.TraCIMobility\""
param *.node[*].veinsmobilityType.debug true
param *.playgroundSizeX 10000m
param *.playgroundSizeY 10000m
param *.playgroundSizeZ 50m
param *.world.use2D false
param *.world.useTorus false

vector 2  LocScenario.node[0].veinsmobility  posx  ETV
vector 3  LocScenario.node[0].veinsmobility  posy  ETV
vector 9  LocScenario.node[1].veinsmobility  posx  ETV
vector 10  LocScenario.node[1].veinsmobility  posy  ETV
vector 4  LocScenario.node[0].veinsmobility  speed  ETV
vector 11  LocScenario.node[1].veinsmobility  speed  ETV
vector 5  LocScenario.node[0].veinsmobility  acceleration  ETV
vector 6  LocScenario.node[0].veinsmobility  co2emission  ETV
vector 12  LocScenario.node[1].veinsmobility  acceleration  ETV
vector 13  LocScenario.node[1].veinsmobility  co2emission  ETV
vector 16  LocScenario.node[2].veinsmobility  posx  ETV
vector 17  LocScenario.node[2].veinsmobility  posy  ETV
vector 23  LocScenario.node[3].veinsmobility  posx  ETV
vector 24  LocScenario.node[3].veinsmobility  posy  ETV
vector 18  LocScenario.node[2].veinsmobility  speed  ETV
vector 25  LocScenario.node[3].veinsmobility  speed  ETV
vector 19  LocScenario.node[2].veinsmobility  acceleration  ETV
vector 20  LocScenario.node[2].veinsmobility  co2emission  ETV
vector 26  LocScenario.node[3].veinsmobility  acceleration  ETV
vector 27  LocScenario.node[3].veinsmobility  co2emission  ETV
vector 30  LocScenario.node[4].veinsmobility  posx  ETV
vector 31  LocScenario.node[4].veinsmobility  posy  ETV
vector 37  LocScenario.node[5].veinsmobility  posx  ETV
vector 38  LocScenario.node[5].veinsmobility  posy  ETV
vector 32  LocScenario.node[4].veinsmobility  speed  ETV
vector 39  LocScenario.node[5].veinsmobility  speed  ETV
vector 33  LocScenario.node[4].veinsmobility  acceleration  ETV
vector 34  LocScenario.node[4].veinsmobility  co2emission  ETV
vector 40  LocScenario.node[5].veinsmobility  acceleration  ETV
vector 41  LocScenario.node[5].veinsmobility  co2emission  ETV
vector 44  LocScenario.node[6].veinsmobility  posx  ETV
vector 45  LocScenario.node[6].veinsmobility  posy  ETV
vector 51  LocScenario.node[7].veinsmobility  posx  ETV
vector 52  LocScenario.node[7].veinsmobility  posy  ETV
vector 46  LocScenario.node[6].veinsmobility  speed  ETV
vector 53  LocScenario.node[7].veinsmobility  speed  ETV
vector 47  LocScenario.node[6].veinsmobility  acceleration  ETV
vector 48  LocScenario.node[6].veinsmobility  co2emission  ETV
vector 54  LocScenario.node[7].veinsmobility  acceleration  ETV
vector 55  LocScenario.node[7].veinsmobility  co2emission  ETV
vector 58  LocScenario.node[8].veinsmobility  posx  ETV
vector 59  LocScenario.node[8].veinsmobility  posy  ETV
vector 65  LocScenario.node[9].veinsmobility  posx  ETV
vector 66  LocScenario.node[9].veinsmobility  posy  ETV
vector 60  LocScenario.node[8].veinsmobility  speed  ETV
vector 67  LocScenario.node[9].veinsmobility  speed  ETV
vector 61  LocScenario.node[8].veinsmobility  acceleration  ETV
vector 62  LocScenario.node[8].veinsmobility  co2emission  ETV
vector 68  LocScenario.node[9].veinsmobility  acceleration  ETV
vector 69  LocScenario.node[9].veinsmobility  co2emission  ETV
vector 72  LocScenario.node[10].veinsmobility  posx  ETV
vector 73  LocScenario.node[10].veinsmobility  posy  ETV
vector 79  LocScenario.node[11].veinsmobility  posx  ETV
vector 80  LocScenario.node[11].veinsmobility  posy  ETV
vector 74  LocScenario.node[10].veinsmobility  speed  ETV
vector 81  LocScenario.node[11].veinsmobility  speed  ETV
vector 75  LocScenario.node[10].veinsmobility  acceleration  ETV
vector 76  LocScenario.node[10].veinsmobility  co2emission  ETV
vector 82  LocScenario.node[11].veinsmobility  acceleration  ETV
vector 83  LocScenario.node[11].veinsmobility  co2emission  ETV
vector 86  LocScenario.node[12].veinsmobility  posx  ETV
vector 87  LocScenario.node[12].veinsmobility  posy  ETV
vector 93  LocScenario.node[13].veinsmobility  posx  ETV
vector 94  LocScenario.node[13].veinsmobility  posy  ETV
vector 88  LocScenario.node[12].veinsmobility  speed  ETV
vector 95  LocScenario.node[13].veinsmobility  speed  ETV
vector 89  LocScenario.node[12].veinsmobility  acceleration  ETV
vector 90  LocScenario.node[12].veinsmobility  co2emission  ETV
vector 96  LocScenario.node[13].veinsmobility  acceleration  ETV
vector 97  LocScenario.node[13].veinsmobility  co2emission  ETV
vector 100  LocScenario.node[14].veinsmobility  posx  ETV
vector 101  LocScenario.node[14].veinsmobility  posy  ETV
vector 107  LocScenario.node[15].veinsmobility  posx  ETV
vector 108  LocScenario.node[15].veinsmobility  posy  ETV
vector 102  LocScenario.node[14].veinsmobility  speed  ETV
vector 109  LocScenario.node[15].veinsmobility  speed  ETV
vector 103  LocScenario.node[14].veinsmobility  acceleration  ETV
vector 104  LocScenario.node[14].veinsmobility  co2emission  ETV
vector 110  LocScenario.node[15].veinsmobility  acceleration  ETV
vector 111  LocScenario.node[15].veinsmobility  co2emission  ETV
vector 114  LocScenario.node[16].veinsmobility  posx  ETV
vector 115  LocScenario.node[16].veinsmobility  posy  ETV
vector 121  LocScenario.node[17].veinsmobility  posx  ETV
vector 122  LocScenario.node[17].veinsmobility  posy  ETV
vector 116  LocScenario.node[16].veinsmobility  speed  ETV
vector 123  LocScenario.node[17].veinsmobility  speed  ETV
vector 117  LocScenario.node[16].veinsmobility  acceleration  ETV
vector 118  LocScenario.node[16].veinsmobility  co2emission  ETV
vector 124  LocScenario.node[17].veinsmobility  acceleration  ETV
vector 125  LocScenario.node[17].veinsmobility  co2emission  ETV
vector 128  LocScenario.node[18].veinsmobility  posx  ETV
vector 129  LocScenario.node[18].veinsmobility  posy  ETV
vector 135  LocScenario.node[19].veinsmobility  posx  ETV
vector 136  LocScenario.node[19].veinsmobility  posy  ETV
vector 130  LocScenario.node[18].veinsmobility  speed  ETV
vector 137  LocScenario.node[19].veinsmobility  speed  ETV
vector 131  LocScenario.node[18].veinsmobility  acceleration  ETV
vector 132  LocScenario.node[18].veinsmobility  co2emission  ETV
vector 138  LocScenario.node[19].veinsmobility  acceleration  ETV
vector 139  LocScenario.node[19].veinsmobility  co2emission  ETV
vector 142  LocScenario.node[20].veinsmobility  posx  ETV
vector 143  LocScenario.node[20].veinsmobility  posy  ETV
vector 149  LocScenario.node[21].veinsmobility  posx  ETV
vector 150  LocScenario.node[21].veinsmobility  posy  ETV
vector 144  LocScenario.node[20].veinsmobility  speed  ETV
vector 151  LocScenario.node[21].veinsmobility  speed  ETV
vector 145  LocScenario.node[20].veinsmobility  acceleration  ETV
vector 146  LocScenario.node[20].veinsmobility  co2emission  ETV
vector 152  LocScenario.node[21].veinsmobility  acceleration  ETV
vector 153  LocScenario.node[21].veinsmobility  co2emission  ETV
vector 156  LocScenario.node[22].veinsmobility  posx  ETV
vector 157  LocScenario.node[22].veinsmobility  posy  ETV
vector 163  LocScenario.node[23].veinsmobility  posx  ETV
vector 164  LocScenario.node[23].veinsmobility  posy  ETV
vector 158  LocScenario.node[22].veinsmobility  speed  ETV
vector 165  LocScenario.node[23].veinsmobility  speed  ETV
vector 159  LocScenario.node[22].veinsmobility  acceleration  ETV
vector 160  LocScenario.node[22].veinsmobility  co2emission  ETV
vector 166  LocScenario.node[23].veinsmobility  acceleration  ETV
vector 167  LocScenario.node[23].veinsmobility  co2emission  ETV
vector 170  LocScenario.node[24].veinsmobility  posx  ETV
vector 171  LocScenario.node[24].veinsmobility  posy  ETV
vector 177  LocScenario.node[25].veinsmobility  posx  ETV
vector 178  LocScenario.node[25].veinsmobility  posy  ETV
vector 172  LocScenario.node[24].veinsmobility  speed  ETV
vector 179  LocScenario.node[25].veinsmobility  speed  ETV
vector 173  LocScenario.node[24].veinsmobility  acceleration  ETV
vector 174  LocScenario.node[24].veinsmobility  co2emission  ETV
vector 180  LocScenario.node[25].veinsmobility  acceleration  ETV
vector 181  LocScenario.node[25].veinsmobility  co2emission  ETV
vector 184  LocScenario.node[26].veinsmobility  posx  ETV
vector 185  LocScenario.node[26].veinsmobility  posy  ETV
vector 191  LocScenario.node[27].veinsmobility  posx  ETV
vector 192  LocScenario.node[27].veinsmobility  posy  ETV
vector 186  LocScenario.node[26].veinsmobility  speed  ETV
vector 193  LocScenario.node[27].veinsmobility  speed  ETV
vector 187  LocScenario.node[26].veinsmobility  acceleration  ETV
vector 188  LocScenario.node[26].veinsmobility  co2emission  ETV
vector 194  LocScenario.node[27].veinsmobility  acceleration  ETV
vector 195  LocScenario.node[27].veinsmobility  co2emission  ETV
vector 198  LocScenario.node[28].veinsmobility  posx  ETV
vector 199  LocScenario.node[28].veinsmobility  posy  ETV
vector 205  LocScenario.node[29].veinsmobility  posx  ETV
vector 206  LocScenario.node[29].veinsmobility  posy  ETV
vector 200  LocScenario.node[28].veinsmobility  speed  ETV
vector 207  LocScenario.node[29].veinsmobility  speed  ETV
vector 201  LocScenario.node[28].veinsmobility  acceleration  ETV
vector 202  LocScenario.node[28].veinsmobility  co2emission  ETV
vector 208  LocScenario.node[29].veinsmobility  acceleration  ETV
vector 209  LocScenario.node[29].veinsmobility  co2emission  ETV
vector 212  LocScenario.node[30].veinsmobility  posx  ETV
vector 213  LocScenario.node[30].veinsmobility  posy  ETV
vector 219  LocScenario.node[31].veinsmobility  posx  ETV
vector 220  LocScenario.node[31].veinsmobility  posy  ETV
vector 214  LocScenario.node[30].veinsmobility  speed  ETV
vector 221  LocScenario.node[31].veinsmobility  speed  ETV
vector 215  LocScenario.node[30].veinsmobility  acceleration  ETV
vector 216  LocScenario.node[30].veinsmobility  co2emission  ETV
vector 222  LocScenario.node[31].veinsmobility  acceleration  ETV
vector 223  LocScenario.node[31].veinsmobility  co2emission  ETV
vector 226  LocScenario.node[32].veinsmobility  posx  ETV
vector 227  LocScenario.node[32].veinsmobility  posy  ETV
vector 233  LocScenario.node[33].veinsmobility  posx  ETV
vector 234  LocScenario.node[33].veinsmobility  posy  ETV
vector 228  LocScenario.node[32].veinsmobility  speed  ETV
vector 235  LocScenario.node[33].veinsmobility  speed  ETV
vector 229  LocScenario.node[32].veinsmobility  acceleration  ETV
vector 230  LocScenario.node[32].veinsmobility  co2emission  ETV
vector 236  LocScenario.node[33].veinsmobility  acceleration  ETV
vector 237  LocScenario.node[33].veinsmobility  co2emission  ETV
vector 240  LocScenario.node[34].veinsmobility  posx  ETV
vector 241  LocScenario.node[34].veinsmobility  posy  ETV
vector 247  LocScenario.node[35].veinsmobility  posx  ETV
vector 248  LocScenario.node[35].veinsmobility  posy  ETV
vector 242  LocScenario.node[34].veinsmobility  speed  ETV
vector 249  LocScenario.node[35].veinsmobility  speed  ETV
vector 243  LocScenario.node[34].veinsmobility  acceleration  ETV
vector 244  LocScenario.node[34].veinsmobility  co2emission  ETV
vector 250  LocScenario.node[35].veinsmobility  acceleration  ETV
vector 251  LocScenario.node[35].veinsmobility  co2emission  ETV
vector 254  LocScenario.node[36].veinsmobility  posx  ETV
vector 255  LocScenario.node[36].veinsmobility  posy  ETV
vector 261  LocScenario.node[37].veinsmobility  posx  ETV
vector 262  LocScenario.node[37].veinsmobility  posy  ETV
vector 256  LocScenario.node[36].veinsmobility  speed  ETV
vector 263  LocScenario.node[37].veinsmobility  speed  ETV
vector 257  LocScenario.node[36].veinsmobility  acceleration  ETV
vector 258  LocScenario.node[36].veinsmobility  co2emission  ETV
vector 264  LocScenario.node[37].veinsmobility  acceleration  ETV
vector 265  LocScenario.node[37].veinsmobility  co2emission  ETV
vector 268  LocScenario.node[38].veinsmobility  posx  ETV
vector 269  LocScenario.node[38].veinsmobility  posy  ETV
vector 275  LocScenario.node[39].veinsmobility  posx  ETV
vector 276  LocScenario.node[39].veinsmobility  posy  ETV
vector 270  LocScenario.node[38].veinsmobility  speed  ETV
vector 277  LocScenario.node[39].veinsmobility  speed  ETV
vector 271  LocScenario.node[38].veinsmobility  acceleration  ETV
vector 272  LocScenario.node[38].veinsmobility  co2emission  ETV
vector 278  LocScenario.node[39].veinsmobility  acceleration  ETV
vector 279  LocScenario.node[39].veinsmobility  co2emission  ETV
vector 282  LocScenario.node[40].veinsmobility  posx  ETV
vector 283  LocScenario.node[40].veinsmobility  posy  ETV
vector 289  LocScenario.node[41].veinsmobility  posx  ETV
vector 290  LocScenario.node[41].veinsmobility  posy  ETV
vector 284  LocScenario.node[40].veinsmobility  speed  ETV
vector 291  LocScenario.node[41].veinsmobility  speed  ETV
6	40	0.3	3.5263934775385
6	59	0.4	3.1852352116058
6	78	0.5	3.5862665650113
6	97	0.6	1.4245105083456
6	116	0.7	4.1332642144708
6	135	0.8	0.973
6	154	0.9	2.3626493702194
6	173	1	6.4734381335528
6	192	1.1	0.973
6	253	1.2	2.5375534047628
6	314	1.3	3.9990523000996
6	375	1.4	0.87746597415985
6	436	1.5	3.3606826447775
6	497	1.6	3.2501632583636
6	558	1.7	3.5847485232321
6	619	1.8	3.429164408268
6	680	1.9	1.7095026479563
6	741	2	4.6142691177558
6	802	2.1	1.1657389346039
6	929	2.2	3.56906618726
6	1056	2.3	0.77025672073724
6	1183	2.4	6.0090199631828
6	1310	2.5	1.37722202522
6	1437	2.6	6.217819538522
6	1564	2.7	0.973
6	1691	2.8	5.7799702878487
6	1818	2.9	0.973
6	1945	3	5.4000126449098
6	2072	3.1	0.973
6	2289	3.2	6.8840504970206
6	2506	3.3	0.973
6	2723	3.4	8.2416695311521
6	2940	3.5	0.973
6	3157	3.6	4.490752251073
6	3374	3.7	0.973
6	3591	3.8	8.552131747955
6	3808	3.9	1.2204701752774
6	4025	4	2.164516469359
6	4242	4.1	3.3387201691319
6	4573	4.2	0.6197736132313
6	4904	4.3	6.1231167185735
6	5235	4.4	1.5870806283002
6	5566	4.5	3.348637857853
6	5897	4.6	0.973
6	6228	4.7	6.6937245165495
6	6559	4.8	0.973
6	6890	4.9	2.7181137091302
6	7221	5	6.7987757673468
6	7552	5.1	1.8422703015564
6	8021	5.2	0.973
6	8490	5.3	7.5603784961096
6	8959	5.4	2.1451191370011
6	9428	5.5	1.1296672117975
6	9897	5.6	0.973
6	10366	5.7	5.5735269140381
6	10835	5.8	4.9402684035037
6	11304	5.9	3.8547222641176
6	11773	6	0.973
6	12242	6.1	5.2434853217204
6	12873	6.2	2.0746194264278
6	13504	6.3	0.973
6	14135	6.4	5.5525335482744
6	14766	6.5	2.3901125161141
6	15397	6.6	2.9554121624851
6	16028	6.7	1.6679431078132
6	16659	6.8	3.2670299284838
6	17290	6.9	5.9498154383064
6	17921	7	0.973
6	18552	7.1	7.138519425632
6	19369	7.2	2.3545790338818
6	20186	7.3	0.93872518207793
6	21003	7.4	0.57683614414921
6	21820	7.5	4.3803947886102
6	22637	7.6	3.3574396794141
6	23454	7.7	1.3427971241716
6	24271	7.8	4.3233197458888
6	25088	7.9	3.2542174648244
6	25905	8	5.0901229913764
6	26722	8.1	0.973
6	27749	8.2	1.9564977149377
6	28776	8.3	1.3254615353135
6	29803	8.4	4.8294310008151
6	30830	8.5	4.3454083311739
6	31857	8.6	4.7542437871956
6	32884	8.7	0.973
6	33911	8.8	4.5871392287964
6	34938	8.9	2.652590568986
6	35965	9	3.5778004016352
6	36992	9.1	3.8097197932366
6	38253	9.2	1.9904275874467
6	39514	9.3	1.7272523052828
6	40775	9.4	3.4585305089943
6	42036	9.5	4.2888279552715
6	43297	9.6	4.0236642464207
6	44558	9.7	0.55941088394468
6	45819	9.8	0.78832048891218
6	47080	9.9	5.5408324801214
6	48341	10	0.80287361797693
6	49602	10.1	3.8191668320989
6	51121	10.2	1.6921351390592
6	52640	10.3	3.1912880111532
6	54159	10.4	0.83594428090723
6	55678	10.5	4.5862443106408
6	57197	10.6	0.97598404106872
6	58716	10.7	8.2084344496704
6	60235	10.8	2.6737231895573
6	61754	10.9	0.973
6	63273	11	6.304779683871
6	64792	11.1	2.1865891378038
6	66593	11.2	1.7541187316991
6	68394	11.3	6.7637285992837
6	70195	11.4	0.973
6	71996	11.5	4.5994191529619
6	73797	11.6	0.7085909946023
6	75598	11.7	4.1615500671766
6	77399	11.8	3.2796183215067
6	79200	11.9	3.0306742909285
6	81001	12	4.9068286543203
6	82802	12.1	0.973
6	84909	12.2	6.452232501208
6	87016	12.3	2.1007731586862
6	89123	12.4	4.683359838761
6	91230	12.5	0.973
6	93337	12.6	5.3304405767738
6	95444	12.7	2.0964629140383
6	97551	12.8	3.9801768823396
6	99658	12.9	4.7532251766833
6	101765	13	0.973
6	103872	13.1	4.7793916098276
6	106309	13.2	0.973
6	108746	13.3	6.1665909672696
6	111183	13.4	0.973
6	113620	13.5	4.9076989866394
6	116057	13.6	0.973
6	118494	13.7	3.5245789841091
6	120931	13.8	1.5182102859624
6	123368	13.9	2.3052363806595
6	125805	14	4.9606916978436
6	128242	14.1	3.3477882993064
6	131033	14.2	4.721396085876
6	133824	14.3	0.973
6	136615	14.4	4.7603829991347
6	139406	14.5	3.5219273163361
6	142197	14.6	1.9302723260815
6	144988	14.7	5.8592928526003
6	147779	14.8	0.973
6	150570	14.9	0.62114144711695
6	153361	15	3.5483394894785
6	156152	15.1	4.1618301347675
6	159321	15.2	0.74562133172299
6	162490	15.3	6.4794789808385
6	165659	15.4	0.973
6	168828	15.5	6.8553236213171
6	171997	15.6	4.0221197939544
6	175166	15.7	0.973
6	178335	15.8	1.0707733958965
6	181504	15.9	6.3840655783277
6	184673	16	1.0243271966048
6	187842	16.1	2.483551651514
6	191368	16.2	1.9769071700601
6	194894	16.3	3.4960891667917
6	198420	16.4	6.3237003890261
6	201991	16.5	2.284080939717
6	205517	16.6	1.0592545340406
6	209043	16.7	1.5065502117005
6	212569	16.8	5.8353013993506
6	216095	16.9	3.3664557516998
6	219621	17	0.973
6	223192	17.1	3.0440234303129
6	227140	17.2	7.2130373666325
6	231088	17.3	1.6303255778773
6	235085	17.4	0.973
6	239082	17.5	3.3808467172778
6	243030	17.6	0.6943743878937
6	246978	17.7	6.1375785151837
6	250975	17.8	1.4758641933658
6	254972	17.9	2.838649159661
6	258921	18	4.4109221667884
6	262870	18.1	2.1758257071874
6	267267	18.2	2.8087909191852
6	271664	18.3	6.0492538705947
6	276111	18.4	0.973
6	280558	18.5	1.9712746994288
6	285005	18.6	1.922738358556
6	289452	18.7	3.6192804753114
6	293899	18.8	3.813204231236
6	298346	18.9	2.2199603795045
6	302743	19	5.2929460582912
6	307140	19.1	3.4106013855266
6	312008	19.2	0.55775500919528
6	316876	19.3	6.2022726731964
6	321744	19.4	0.973
6	326612	19.5	4.5510589334944
6	331480	19.6	2.4384059264984
6	336348	19.7	4.7737168469926
6	341216	19.8	3.0466590039537
6	346084	19.9	2.8907446697246
6	350952	20	3.1595311540965
6	355873	20.1	1.0703943275402
6	361236	20.2	1.5984318463508
5	40	0.3	0.14615379297172
5	59	0.4	0.075244250893611
5	78	0.5	0.15759689477271
5	97	0.6	-0.2889111137949
5	116	0.7	0.27079897664954
5	135	0.8	-0.5904415293131
5	154	0.9	-0.093456690991296
5	173	1	0.75428761555813
5	192	1.1	-0.53076856574044
5	253	1.2	-0.057659856020464
5	314	1.3	0.24427895995323
5	375	1.4	-0.40167826109101
5	436	1.5	0.11318827422802
5	497	1.6	0.08992944813798
5	558	1.7	0.15864058448933
5	619	1.8	0.12591766514817
5	680	1.9	-0.22957457795272
5	741	2	0.3705197570147
5	802	2.1	-0.34231308174785
5	929	2.2	0.15506748019252
5	1056	2.3	-0.42394634676167
5	1183	2.4	0.65873095940333
5	1310	2.5	-0.29865518619772
5	1437	2.6	0.69919253680855
5	1564	2.7	-0.57365162088534
5	1691	2.8	0.60859755987767
5	1818	2.9	-0.7163825698197
5	1945	3	0.53128755420911
5	2072	3.1	-0.53547520511781
5	2289	3.2	0.83558533515316
5	2506	3.3	-1.1240083746845
5	2723	3.4	1.1156675350852
5	2940	3.5	-0.5991776230745
5	3157	3.6	0.34329282399266
5	3374	3.7	-0.9098710704362
5	3591	3.8	1.1795761312824
5	3808	3.9	-0.33198550133967
5	4025	4	-0.13660131085196
5	4242	4.1	0.10573116228915
5	4573	4.2	-0.45557804203128
5	4904	4.3	0.67953492125962
5	5235	4.4	-0.25612134882248
5	5566	4.5	0.10749090169554
5	5897	4.6	-0.6312039635144
5	6228	4.7	0.79717452563344
5	6559	4.8	-1.125927927834
5	6890	4.9	-0.019604610255932
5	7221	5	0.82124974734615
5	7552	5.1	-0.20280492666643
5	8021	5.2	-0.61653735837897
5	8490	5.3	0.97738239965402
5	8959	5.4	-0.1407156073023
5	9428	5.5	-0.3500480764778
5	9897	5.6	-0.49938658648173
5	10366	5.7	0.5696001474513
5	10835	5.8	0.43614098867401
5	11304	5.9	0.21103034324479
5	11773	6	-1.0376538230106
5	12242	6.1	0.50065131420268
5	12873	6.2	-0.15446590885986
5	13504	6.3	-0.4738169030519
5	14135	6.4	0.56496823094786
5	14766	6.5	-0.089158724178589
5	15397	6.6	0.027771948929889
5	16028	6.7	-0.23821501187047
5	16659	6.8	0.092820413177819
5	17290	6.9	0.64432173140812
5	17921	7	-0.90641009327953
5	18552	7.1	0.8898857752094
5	19369	7.2	-0.097678381879831
5	20186	7.3	-0.38965071630663
5	21003	7.4	-0.46410282894502
5	21820	7.5	0.3234414406819
5	22637	7.6	0.11111965882591
5	23454	7.7	-0.30541576493995
5	24271	7.8	0.31105195013804
5	25088	7.9	0.089393835887321
5	25905	8	0.46665848919655
5	26722	8.1	-0.54477190098257
5	27749	8.2	-0.17851831971203
5	28776	8.3	-0.30872037224473
5	29803	8.4	0.41614754167387
5	30830	8.5	0.31438363427295
5	31857	8.6	0.39681438286788
5	32884	8.7	-0.88992353088685
5	33911	8.8	0.3650188218802
5	34938	8.9	-0.035104121291063
5	35965	9	0.15570751940832
5	36992	9.1	0.20278415344656
5	38253	9.2	-0.17257564363536
5	39514	9.3	-0.22648978673388
5	40775	9.4	0.13130419487133
5	42036	9.5	0.30158317079767
5	43297	9.6	0.24570814240725
5	44558	9.7	-0.4683959798189
5	45819	9.8	-0.42056258020455
5	47080	9.9	0.56064954993779
5	48341	10	-0.41772157701196
5	49602	10.1	0.20586358420548
5	51121	10.2	-0.2335544452071
5	52640	10.3	0.076582703250452
5	54159	10.4	-0.41042235740459
5	55678	10.5	0.36554660047404
5	57197	10.6	-0.38135483495427
5	58716	10.7	1.1090140904766
5	60235	10.8	-0.032592245493994
5	61754	10.9	-1.1351548947394
5	63273	11	0.71940957431217
5	64792	11.1	-0.13164627030491
5	66593	11.2	-0.22062910420356
5	68394	11.3	0.81092224805616
5	70195	11.4	-1.0570846650749
5	71996	11.5	0.36802280121481
5	73797	11.6	-0.43681156283711
5	75598	11.7	0.27813675252258
5	77399	11.8	0.095090634538799
5	79200	11.9	0.043395087728264
5	81001	12	0.42941988392268
5	82802	12.1	-0.74508697362617
5	84909	12.2	0.74861112884246
5	87016	12.3	-0.14981987385546
5	89123	12.4	0.38203212800436
5	91230	12.5	-1.106702105049
5	93337	12.6	0.5189921665238
5	95444	12.7	-0.14980253241955
5	97551	12.8	0.2391923387302
5	99658	12.9	0.39698162043933
5	101765	13	-0.72249815235846
5	103872	13.1	0.40407495358959
5	106309	13.2	-0.50266144580675
5	108746	13.3	0.68961454604288
5	111183	13.4	-0.54902558482716
5	113620	13.5	0.43023076804818
5	116057	13.6	-0.47583451357205
5	118494	13.7	0.14570059438704
5	120931	13.8	-0.26912685791032
5	123368	13.9	-0.105686243996
5	125805	14	0.44262786493636
5	128242	14.1	0.10842384358401
5	131033	14.2	0.39048325293699
5	133824	14.3	-0.92182451041882
5	136615	14.4	0.40128913528751
5	139406	14.5	0.14438439444639
5	142197	14.6	-0.18436429745051
5	144988	14.7	0.62497051230167
5	147779	14.8	-0.69099599104376
5	150570	14.9	-0.45483381738887
5	153361	15	0.15209078986665
5	156152	15.1	0.27801949647255
5	159321	15.2	-0.42899919133635
5	162490	15.3	0.75570423558823
5	165659	15.4	-0.71991106728092
5	168828	15.5	0.8325769787654
5	171997	15.6	0.24597423006782
5	175166	15.7	-0.73144730851055
5	178335	15.8	-0.36154582833404
5	181504	15.9	0.7359645474935
5	184673	16	-0.37171120867132
5	187842	16.1	-0.069227950368074
5	191368	16.2	-0.17379300317263
5	194894	16.3	0.14072431600653
5	198420	16.4	0.72177232610994
5	201991	16.5	-0.11214748690836
5	205517	16.6	-0.36468764382882
5	209043	16.7	-0.27156780159565
5	212569	16.8	0.62172301039098
5	216095	16.9	0.11112729392483
5	219621	17	-0.82927067433484
5	223192	17.1	0.047298939363074
5	227140	17.2	0.9045944222715
5	231088	17.3	-0.24717288822867
5	235085	17.4	-0.54952991663015
5	239082	17.5	0.11626315722243
5	243030	17.6	-0.43962676348166
5	246978	17.7	0.68553487344179
5	250975	17.8	-0.27820167886091
5	254972	17.9	0.0040664842352101
5	258921	18	0.32811169219205
5	262870	18.1	-0.13373790935148
5	267267	18.2	-0.0027488023741284
5	271664	18.3	0.66342029215303
5	276111	18.4	-0.89885580628177
5	280558	18.5	-0.17506316823418
5	285005	18.6	-0.18468869577628
5	289452	18.7	0.16673862703609
5	293899	18.8	0.20606095567345
5	298346	18.9	-0.12366911324207
5	302743	19	0.51034543686548
5	307140	19.1	0.1206721285358
5	312008	19.2	-0.4683868749067
5	316876	19.3	0.69600128612944
5	321744	19.4	-0.8587834799895
5	326612	19.5	0.35772662474773
5	331480	19.6	-0.079197120317254
5	336348	19.7	0.40208391714842
5	341216	19.8	0.045133018749759
5	346084	19.9	0.012886597379129
5	350952	20	0.068150428310041
5	355873	20.1	-0.36262831040659
5	361236	20.2	-0.25289666533936
4	21	0.2	20.027025382554
4	40	0.3	20.041640761851
4	59	0.4	20.04916518694
4	78	0.5	20.064924876417
4	97	0.6	20.036033765038
4	116	0.7	20.063113662703
4	135	0.8	20.004069509772
4	154	0.9	19.994723840673
4	173	1	20.070152602228
4	192	1.1	20.017075745654
4	253	1.2	20.011309760052
4	314	1.3	20.035737656048
4	375	1.4	19.995569829938
4	436	1.5	20.006888657361
4	497	1.6	20.015881602175
4	558	1.7	20.031745660624
4	619	1.8	20.044337427139
4	680	1.9	20.021379969344
4	741	2	20.058431945045
4	802	2.1	20.02420063687
4	929	2.2	20.039707384889
4	1056	2.3	19.997312750213
4	1183	2.4	20.063185846154
4	1310	2.5	20.033320327534
4	1437	2.6	20.103239581215
4	1564	2.7	20.045874419126
4	1691	2.8	20.106734175114
4	1818	2.9	20.035095918132
4	1945	3	20.088224673553
4	2072	3.1	20.034677153041
4	2289	3.2	20.118235686556
4	2506	3.3	20.005834849088
4	2723	3.4	20.117401602597
4	2940	3.5	20.057483840289
4	3157	3.6	20.091813122688
4	3374	3.7	20.000826015645
4	3591	3.8	20.118783628773
4	3808	3.9	20.085585078639
4	4025	4	20.071924947554
4	4242	4.1	20.082498063783
4	4573	4.2	20.03694025958
4	4904	4.3	20.104893751706
4	5235	4.4	20.079281616823
4	5566	4.5	20.090030706993
4	5897	4.6	20.026910310641
4	6228	4.7	20.106627763205
4	6559	4.8	19.994034970421
4	6890	4.9	19.992074509396
4	7221	5	20.07419948413
4	7552	5.1	20.053918991464
4	8021	5.2	19.992265255626
4	8490	5.3	20.090003495591
4	8959	5.4	20.075931934861
4	9428	5.5	20.040927127213
4	9897	5.6	19.990988468565
4	10366	5.7	20.04794848331
4	10835	5.8	20.091562582178
4	11304	5.9	20.112665616502
4	11773	6	20.008900234201
4	12242	6.1	20.058965365621
4	12873	6.2	20.043518774735
4	13504	6.3	19.99613708443
4	14135	6.4	20.052633907525
4	14766	6.5	20.043718035107
4	15397	6.6	20.04649523
4	16028	6.7	20.022673728813
4	16659	6.8	20.031955770131
4	17290	6.9	20.096387943272
4	17921	7	20.005746933944
4	18552	7.1	20.094735511465
4	19369	7.2	20.084967673277
4	20186	7.3	20.046002601646
4	21003	7.4	19.999592318751
4	21820	7.5	20.03193646282
4	22637	7.6	20.043048428702
4	23454	7.7	20.012506852208
4	24271	7.8	20.043612047222
4	25088	7.9	20.052551430811
4	25905	8	20.09921727973
4	26722	8.1	20.044740089632
4	27749	8.2	20.026888257661
4	28776	8.3	19.996016220436
4	29803	8.4	20.037630974604
4	30830	8.5	20.069069338031
4	31857	8.6	20.108750776318
4	32884	8.7	20.019758423229
4	33911	8.8	20.056260305417
4	34938	8.9	20.052749893288
4	35965	9	20.068320645229
4	36992	9.1	20.088599060574
4	38253	9.2	20.07134149621
4	39514	9.3	20.048692517537
4	40775	9.4	20.061822937024
4	42036	9.5	20.091981254104
4	43297	9.6	20.116552068344
4	44558	9.7	20.069712470362
4	45819	9.8	20.027656212342
4	47080	9.9	20.083721167336
4	48341	10	20.041949009635
4	49602	10.1	20.062535368055
4	51121	10.2	20.039179923534
4	52640	10.3	20.046838193859
4	54159	10.4	20.005795958119
4	55678	10.5	20.042350618166
4	57197	10.6	20.004215134671
4	58716	10.7	20.115116543719
4	60235	10.8	20.111857319169
4	61754	10.9	19.998341829695
4	63273	11	20.070282787126
4	64792	11.1	20.057118160096
4	66593	11.2	20.035055249676
4	68394	11.3	20.116147474481
4	70195	11.4	20.010439007974
4	71996	11.5	20.047241288095
4	73797	11.6	20.003560131812
4	75598	11.7	20.031373807064
4	77399	11.8	20.040882870518
4	79200	11.9	20.045222379291
4	81001	12	20.088164367683
4	82802	12.1	20.01365567032
4	84909	12.2	20.088516783204
4	87016	12.3	20.073534795819
4	89123	12.4	20.111738008619
4	91230	12.5	20.001067798114
4	93337	12.6	20.052967014767
4	95444	12.7	20.037986761525
4	97551	12.8	20.061905995398
4	99658	12.9	20.101604157442
4	101765	13	20.029354342206
4	103872	13.1	20.069761837565
4	106309	13.2	20.019495692984
4	108746	13.3	20.088457147588
4	111183	13.4	20.033554589106
4	113620	13.5	20.076577665911
4	116057	13.6	20.028994214553
4	118494	13.7	20.043564273992
4	120931	13.8	20.016651588201
4	123368	13.9	20.006082963801
4	125805	14	20.050345750295
4	128242	14.1	20.061188134653
4	131033	14.2	20.100236459947
4	133824	14.3	20.008054008905
4	136615	14.4	20.048182922434
4	139406	14.5	20.062621361879
4	142197	14.6	20.044184932134
4	144988	14.7	20.106681983364
4	147779	14.8	20.037582384259
4	150570	14.9	19.992099002521
4	153361	15	20.007308081507
4	156152	15.1	20.035110031154
4	159321	15.2	19.992210112021
4	162490	15.3	20.06778053558
4	165659	15.4	19.995789428852
4	168828	15.5	20.079047126728
4	171997	15.6	20.103644549735
4	175166	15.7	20.030499818884
4	178335	15.8	19.99434523605
4	181504	15.9	20.0679416908
4	184673	16	20.030770569933
4	187842	16.1	20.023847774896
4	191368	16.2	20.006468474579
4	194894	16.3	20.020540906179
4	198420	16.4	20.09271813879
4	201991	16.5	20.081503390099
4	205517	16.6	20.045034625717
4	209043	16.7	20.017877845557
4	212569	16.8	20.080050146596
4	216095	16.9	20.091162875989
4	219621	17	20.008235808555
4	223192	17.1	20.012965702491
4	227140	17.2	20.103425144718
4	231088	17.3	20.078707855896
4	235085	17.4	20.023754864233
4	239082	17.5	20.035381179955
4	243030	17.6	19.991418503607
4	246978	17.7	20.059971990951
4	250975	17.8	20.032151823065
4	254972	17.9	20.032558471488
4	258921	18	20.065369640708
4	262870	18.1	20.051995849772
4	267267	18.2	20.051720969535
4	271664	18.3	20.11806299875
4	276111	18.4	20.028177418122
4	280558	18.5	20.010671101299
4	285005	18.6	19.992202231721
4	289452	18.7	20.008876094425
4	293899	18.8	20.029482189992
4	298346	18.9	20.017115278668
4	302743	19	20.068149822354
4	307140	19.1	20.080217035208
4	312008	19.2	20.033378347717
4	316876	19.3	20.10297847633
4	321744	19.4	20.017100128331
4	326612	19.5	20.052872790806
4	331480	19.6	20.044953078774
4	336348	19.7	20.085161470489
4	341216	19.8	20.089674772364
4	346084	19.9	20.090963432102
4	350952	20	20.097778474933
4	355873	20.1	20.061515643892
4	361236	20.2	20.036225977358
3	2	0.1	2142.7175664701
3	21	0.2	2142.7175664701
3	40	0.3	2140.7374695232
3	59	0.4	2138.7559275355
3	78	0.5	2136.7736415985
3	97	0.6	2134.7926481853
3	116	0.7	2132.8160375628
3	135	0.8	2130.8367554327
3	154	0.9	2128.8632981731
3	173	1	2126.8907628898
3	192	1.1	2124.9107863488
3	253	1.2	2122.9360459877
3	314	1.3	2120.9618744572
3	375	1.4	2118.9867402974
3	436	1.5	2117.0196681558
3	497	1.6	2115.0514825201
3	558	1.7	2113.0824121998
3	619	1.8	2111.1117812465
3	680	1.9	2109.1399115731
3	741	2	2107.1703003488
3	802	2.1	2105.1975600842
3	929	2.2	2103.2375434578
3	1056	2.3	2101.2760089938
3	1183	2.4	2099.318624218
3	1310	2.5	2097.3547916261
3	1437	2.6	2095.3938823425
3	1564	2.7	2093.4261291953
3	1691	2.8	2091.4647702256
3	1818	2.9	2089.50110675
3	1945	3	2087.5444396085
3	2072	3.1	2085.5825838075
3	2289	3.2	2083.6259575634
3	2506	3.3	2081.6611708275
3	2723	3.4	2079.7073613799
3	2940	3.5	2077.7426561023
3	3157	3.6	2075.794574071
3	3374	3.7	2073.8469827073
3	3591	3.8	2071.9082111402
3	3808	3.9	2069.958005402
3	4025	4	2068.0110177511
3	4242	4.1	2066.0653542393
3	4573	4.2	2064.1186658269
3	4904	4.3	2062.1763935409
3	5235	4.4	2060.2431545834
3	5566	4.5	2058.3131020816
3	5897	4.6	2056.3820163602
3	6228	4.7	2054.4569978718
3	6559	4.8	2052.524316815
3	6890	4.9	2050.6024583565
3	7221	5	2048.6807883407
3	7552	5.1	2046.7550688253
3	8021	5.2	2044.8345202518
3	8490	5.3	2042.9198762098
3	8959	5.4	2040.9958718508
3	9428	5.5	2039.0732151145
3	9897	5.6	2037.153910762
3	10366	5.7	2035.2393889968
3	10835	5.8	2033.307068655
3	11304	5.9	2031.3568319351
3	11773	6	2029.4253928375
3	12242	6.1	2027.5098963368
3	12873	6.2	2025.5896069897
3	13504	6.3	2023.6707963791
3	14135	6.4	2021.7565217231
3	14766	6.5	2019.8369771157
3	15397	6.6	2017.9201448446
3	16028	6.7	2016.0030469832
3	16659	6.8	2014.0882272331
3	17290	6.9	2012.1725198177
3	17921	7	2010.2506505879
3	18552	7.1	2008.3392691836
3	19369	7.2	2006.4314036596
3	20186	7.3	2004.5244655288
3	21003	7.4	2002.6212268803
3	21820	7.5	2000.7223945888
3	22637	7.6	1998.8204914294
3	23454	7.7	1996.9175332605
3	24271	7.8	1995.0224286752
3	25088	7.9	1993.1397991266
3	25905	8	1991.2563299316
3	26722	8.1	1989.3684775692
3	27749	8.2	1987.4857420674
3	28776	8.3	1985.7638074443
3	29803	8.4	1983.9077641084
3	30830	8.5	1982.0478580638
3	31857	8.6	1980.1850338896
3	32884	8.7	1978.3185264584
3	33911	8.8	1976.4602793557
3	34938	8.9	1974.5986441243
3	35965	9	1972.7373347317
3	36992	9.1	1970.8917356855
3	38253	9.2	1969.052579489
3	39514	9.3	1967.2150032611
3	40775	9.4	1965.3795005979
3	42036	9.5	1963.5427958154
3	43297	9.6	1961.7033299715
3	44558	9.7	1959.8649571215
3	45819	9.8	1958.0488265813
3	47080	9.9	1956.2365017586
3	48341	10	1954.4191035559
3	49602	10.1	1952.605485362
3	51121	10.2	1950.7900042858
3	52640	10.3	1948.9766366697
3	54159	10.4	1947.1625760481
3	55678	10.5	1945.3644910649
3	57197	10.6	1943.565684232
3	58716	10.7	1941.7703000698
3	60235	10.8	1939.9649624738
3	61754	10.9	1938.1599173941
3	63273	11	1936.3650603628
3	64792	11.1	1934.5688210942
3	66593	11.2	1932.7943300108
3	68394	11.3	1931.0217908748
3	70195	11.4	1929.2420773566
3	71996	11.5	1927.4717160659
3	73797	11.6	1925.698098808
3	75598	11.7	1923.9283461044
3	77399	11.8	1922.1676963967
3	79200	11.9	1920.4116727226
3	81001	12	1918.6552688117
3	82802	12.1	1916.8951022349
3	84909	12.2	1915.1414642645
3	87016	12.3	1913.3812668082
3	89123	12.4	1911.6223821048
3	91230	12.5	1909.8733692737
3	93337	12.6	1908.1364894567
3	95444	12.7	1906.3951027452
3	97551	12.8	1904.6550169092
3	99658	12.9	1902.9128539424
3	101765	13	1901.1672436128
3	103872	13.1	1899.4279074106
3	106309	13.2	1897.6915178249
3	108746	13.3	1895.9681032857
3	111183	13.4	1894.2387520748
3	113620	13.5	1892.51412725
3	116057	13.6	1890.7857987058
3	118494	13.7	1889.0615664692
3	120931	13.8	1887.3360799426
3	123368	13.9	1885.6083370248
3	125805	14	1883.879088996
3	128242	14.1	1882.146015064
3	131033	14.2	1880.4120039585
3	133824	14.3	1878.6746176676
3	136615	14.4	1876.9451992693
3	139406	14.5	1875.2123122838
3	142197	14.6	1873.4781772956
3	144988	14.7	1871.7456358808
3	147779	14.8	1870.0076924639
3	150570	14.9	1868.2757217477
3	153361	15	1866.5476824381
3	156152	15.1	1864.8183285149
3	159321	15.2	1863.0865714993
3	162490	15.3	1861.3585225859
3	165659	15.4	1859.6239416588
3	168828	15.5	1857.8955833632
3	171997	15.6	1856.1600285958
3	175166	15.7	1854.4223477229
3	178335	15.8	1852.6909891961
3	181504	15.9	1850.9627557308
3	184673	16	1849.2281608742
3	187842	16.1	1847.4967789447
3	191368	16.2	1845.7659953947
3	194894	16.3	1844.0367140438
3	198420	16.4	1842.3062163267
3	201991	16.5	1840.5694798902
3	205517	16.6	1838.833712813
3	209043	16.7	1837.101097954
3	212569	16.8	1835.3708304215
3	216095	16.9	1833.635188957
3	219621	17	1831.8985869514
3	223192	17.1	1830.169152839
3	227140	17.2	1828.4393098931
3	231088	17.3	1826.7016479846
3	235085	17.4	1824.9661225425
3	239082	17.5	1823.2353470234
3	243030	17.6	1821.5035665707
3	246978	17.7	1819.7755860808
3	250975	17.8	1818.041680094
3	254972	17.9	1816.3101787744
3	258921	18	1814.5786423056
3	262870	18.1	1812.844269767
3	267267	18.2	1811.1110532068
3	271664	18.3	1809.3778604063
3	276111	18.4	1807.6389332586
3	280558	18.5	1805.9077754711
3	285005	18.6	1804.1781308615
3	289452	18.7	1802.4500826293
3	293899	18.8	1800.7205931731
3	298346	18.9	1798.9893226062
3	302743	19	1797.259120987
3	307140	19.1	1795.5245081402
3	312008	19.2	1793.7888522505
3	316876	19.3	1792.0572449149
3	321744	19.4	1790.3196216147
3	326612	19.5	1788.5894213051
3	331480	19.6	1786.8561289455
3	336348	19.7	1785.1235211351
3	341216	19.8	1783.3874378677
3	346084	19.9	1781.6509644879
3	350952	20	1779.9143797215
3	355873	20.1	1778.1772058892
3	361236	20.2	1776.4431664751
2	2	0.1	126.77144982328
2	21	0.2	126.77144982328
2	40	0.3	127.00370434531
2	59	0.4	127.2361283627
2	78	0.5	127.46863964127
2	97	0.6	127.72392449124
2	116	0.7	127.99096959345
2	135	0.8	128.25837562308
2	154	0.9	128.52499469796
2	173	1	128.79148921151
2	192	1.1	129.05898905783
2	253	1.2	129.32578148297
2	314	1.3	129.59249705766
2	375	1.4	129.86951910886
2	436	1.5	130.1742767646
2	497	1.6	130.47920693351
2	558	1.7	130.78427416623
2	619	1.8	131.08958318717
2	680	1.9	131.39508412248
2	741	2	131.70023515723
2	802	2.1	132.00898441731
2	929	2.2	132.37221952228
2	1056	2.3	132.73573591664
2	1183	2.4	133.09848328058
2	1310	2.5	133.46242556967
2	1437	2.6	133.82582610405
2	1564	2.7	134.1904949601
2	1691	2.8	134.55819353569
2	1818	2.9	134.94607767901
2	1945	3	135.33257983042
2	2072	3.1	135.72010690222
2	2289	3.2	136.10660097513
2	2506	3.3	136.49470699704
2	2723	3.4	136.8806446657
2	2940	3.5	137.26873459709
2	3157	3.6	137.70562799132
2	3374	3.7	138.16100932735
2	3591	3.8	138.61432843881
2	3808	3.9	139.07032106188
2	4025	4	139.52556123916
2	4242	4.1	139.98049180931
2	4573	4.2	140.43566201934
2	4904	4.3	140.88979966085
2	5235	4.4	141.40757556712
2	5566	4.5	141.92756871839
2	5897	4.6	142.44784023885
2	6228	4.7	142.96647713041
2	6559	4.8	143.48717846483
2	6890	4.9	144.00496398372
2	7221	5	144.52269873255
2	7552	5.1	145.05646168185
2	8021	5.2	145.60134834418
2	8490	5.3	146.14455980784
2	8959	5.4	146.69042692517
2	9428	5.5	147.23591170297
2	9897	5.6	147.7804453623
2	10366	5.7	148.32362213428
2	10835	5.8	148.39808827123
2	11304	5.9	147.95029977966
2	11773	6	148.28951005143
2	12242	6.1	148.85278847448
2	12873	6.2	149.41747630074
2	13504	6.3	149.98172928395
2	14135	6.4	150.54464840655
2	14766	6.5	151.10962632495
2	15397	6.6	151.68063347777
2	16028	6.7	152.25171974755
2	16659	6.8	152.82212738837
2	17290	6.9	153.39279945678
2	17921	7	153.96530707444
2	18552	7.1	154.5410906683
2	19369	7.2	155.15812726798
2	20186	7.3	155.7748639327
2	21003	7.4	156.39040412109
2	21820	7.5	157.00451921767
2	22637	7.6	157.61962748584
2	23454	7.7	158.23507696228
2	24271	7.8	158.86411819465
2	25088	7.9	159.53936540961
2	25905	8	160.21491378255
2	26722	8.1	160.89203427655
2	27749	8.2	161.56731949402
2	28776	8.3	162.20391899341
2	29803	8.4	162.94396185868
2	30830	8.5	163.68554486582
2	31857	8.6	164.42829139155
2	32884	8.7	165.17250650807
2	33911	8.8	165.91342806075
2	34938	8.9	166.65570053039
2	35965	9	167.39784308138
2	36992	9.1	168.18161143639
2	38253	9.2	168.98605037377
2	39514	9.3	169.78979823973
2	40775	9.4	170.59263913749
2	42036	9.5	171.39600583702
2	43297	9.6	172.20058021282
2	44558	9.7	173.0135200852
2	45819	9.8	173.86423386454
2	47080	9.9	174.71316496572
2	48341	10	175.56447254488
2	49602	10.1	176.41400948831
2	51121	10.2	177.26441904506
2	52640	10.3	178.11383861263
2	54159	10.4	178.9635827985
2	55678	10.5	179.8371896212
2	57197	10.6	180.71774552265
2	58716	10.7	181.59662595072
2	60235	10.8	182.48037880578
2	61754	10.9	183.36398846759
2	63273	11	184.2426108534
2	64792	11.1	185.13439930434
2	66593	11.2	186.0661606258
2	68394	11.3	186.99689700606
2	70195	11.4	187.93140055757
2	71996	11.5	188.86099338063
2	73797	11.6	189.79229586811
2	75598	11.7	190.72156913028
2	77399	11.8	191.67368392226
2	79200	11.9	192.63642901481
2	81001	12	193.59938257326
2	82802	12.1	194.5643990243
2	84909	12.2	195.52583614785
2	87016	12.3	196.4908695286
2	89123	12.4	197.45518318881
2	91230	12.5	198.44499115708
2	93337	12.6	199.43384217608
2	95444	12.7	200.42525908774
2	97551	12.8	201.41593537701
2	99658	12.9	202.40779423108
2	101765	13	203.40161575877
2	103872	13.1	204.391865262
2	106309	13.2	205.39525596121
2	108746	13.3	206.41102381195
2	111183	13.4	207.43029069332
2	113620	13.5	208.44677187744
2	116057	13.6	209.46543600658
2	118494	13.7	210.48168580217
2	120931	13.8	211.49867486703
2	123368	13.9	212.50647742454
2	125805	14	213.50961379745
2	128242	14.1	214.51496957589
2	131033	14.2	215.52086900848
2	133824	14.3	216.52872638534
2	136615	14.4	217.53196158955
2	139406	14.5	218.53720892041
2	142197	14.6	219.54318021726
2	144988	14.7	220.54822708262
2	147779	14.8	221.55640764813
2	150570	14.9	222.56112345138
2	153361	15	223.56355864654
2	156152	15.1	224.56675644878
2	159321	15.2	225.57134828437
2	162490	15.3	226.57378905074
2	165659	15.4	227.58001903665
2	168828	15.5	228.58263927558
2	171997	15.6	229.58943418604
2	175166	15.7	230.59746244987
2	178335	15.8	231.60182312218
2	181504	15.9	232.60437094702
2	184673	16	233.61060901351
2	187842	16.1	234.61498326171
2	191368	16.2	235.61901039011
2	194894	16.3	236.62216609314
2	198420	16.4	237.62602740995
2	201991	16.5	238.6335078064
2	205517	16.6	239.64042587776
2	209043	16.7	240.64551534808
2	212569	16.8	241.64924313486
2	216095	16.9	242.65608833832
2	219621	17	243.66349075145
2	223192	17.1	244.66673507137
2	227140	17.2	245.6702165556
2	231088	17.3	246.67823381811
2	235085	17.4	247.685011717
2	239082	17.5	248.68903418671
2	243030	17.6	249.69363961813
2	246978	17.7	250.69604069201
2	250975	17.8	251.70187914525
2	254972	17.9	252.70632265165
2	258921	18	253.71078654804
2	262870	18.1	254.7168956479
2	267267	18.2	255.72233416492
2	271664	18.3	256.727758899
2	276111	18.4	257.73651012647
2	280558	18.5	258.74075434997
2	285005	18.6	259.7441207793
2	289452	18.7	260.74656115054
2	293899	18.8	261.7498375754
2	298346	18.9	262.75414722221
2	302743	19	263.75783677269
2	307140	19.1	264.76408527522
2	312008	19.2	265.77093884673
2	316876	19.3	266.77544385299
2	321744	19.4	267.78343871885
2	326612	19.5	268.78712750967
2	331480	19.6	269.79260999789
2	336348	19.7	270.79769537932
2	341216	19.8	271.80479687257
2	346084	19.9	272.81212466985
2	350952	20	273.81951708255
2	355873	20.1	274.82725121219
2	361236	20.2	275.83316706661
20	314	1.3	3.1743628569106
20	375	1.4	2.6313610209989
20	436	1.5	4.2653056878139
20	497	1.6	0.72885528073334
20	558	1.7	2.5277204664452
20	619	1.8	1.5621992428402
20	680	1.9	3.9730046573087
20	741	2	5.548718483175
20	802	2.1	2.3227648383198
20	929	2.2	3.1521056032495
20	1056	2.3	2.2800956012499
20	1183	2.4	1.3929301524563
20	1310	2.5	5.0399944989172
20	1437	2.6	2.3784175292024
20	1564	2.7	0.973
20	1691	2.8	2.6538066630823
20	1818	2.9	2.8148687794176
20	1945	3	4.2117944420627
20	2072	3.1	3.3062611959024
20	2289	3.2	0.973
20	2506	3.3	4.550659205718
20	2723	3.4	6.7257136913304
20	2940	3.5	0.973
20	3157	3.6	3.4359127711665
20	3374	3.7	2.9113959789075
20	3591	3.8	7.7579720686818
20	3808	3.9	0.973
20	4025	4	3.4141382109653
20	4242	4.1	2.7156617779531
20	4573	4.2	3.915757643541
20	4904	4.3	2.4899069814145
20	5235	4.4	1.3990483597858
20	5566	4.5	2.9182736063098
20	5897	4.6	3.9844558355584
20	6228	4.7	1.0967094706267
20	6559	4.8	4.0611242249001
20	6890	4.9	5.4156521247127
20	7221	5	0.89619897851007
20	7552	5.1	0.973
20	8021	5.2	4.9285389442793
20	8490	5.3	6.0993733664083
20	8959	5.4	0.973
20	9428	5.5	4.6242326559376
20	9897	5.6	2.592786333717
20	10366	5.7	0.973
20	10835	5.8	2.3116102415196
20	11304	5.9	6.0294923112678
20	11773	6	5.145067004218
20	12242	6.1	1.8864888002046
20	12873	6.2	2.1482268092091
20	13504	6.3	1.9973634879091
20	14135	6.4	2.7250112067938
20	14766	6.5	0.71033870127566
20	15397	6.6	2.609603203575
20	16028	6.7	7.5422848603569
20	16659	6.8	1.8950405997737
20	17290	6.9	0.65065305583793
20	17921	7	5.0607671034046
20	18552	7.1	0.973
20	19369	7.2	4.1346692774184
20	20186	7.3	1.4189810998088
20	21003	7.4	6.7932022530321
20	21820	7.5	3.7297027514999
20	22637	7.6	2.5664929975988
20	23454	7.7	1.2628451512578
20	24271	7.8	4.7852066266523
20	25088	7.9	0.973
20	25905	8	2.5678191852624
20	26722	8.1	0.973
20	27749	8.2	6.4510184568653
20	28776	8.3	1.3762254508638
20	29803	8.4	0.973
20	30830	8.5	5.4443196664604
20	31857	8.6	4.6827324949746
20	32884	8.7	3.4986296558911
20	33911	8.8	0.973
20	34938	8.9	1.4742616312591
20	35965	9	7.9234111179077
20	36992	9.1	1.5476410989952
20	38253	9.2	2.3545633253387
20	39514	9.3	3.6024257232691
20	40775	9.4	0.973
20	42036	9.5	5.4279349415342
20	43297	9.6	0.973
20	44558	9.7	5.2364440348793
20	45819	9.8	5.8599877440625
20	47080	9.9	0.973
20	48341	10	3.8754750216182
20	49602	10.1	2.2714751474988
20	51121	10.2	0.75063029937783
20	52640	10.3	2.3098083758697
20	54159	10.4	7.2631683562018
20	55678	10.5	2.103562632984
20	57197	10.6	3.607066059852
20	58716	10.7	1.8260170921157
20	60235	10.8	0.973
20	61754	10.9	7.3233495999289
20	63273	11	0.973
20	64792	11.1	5.7517368024387
20	66593	11.2	0.973
20	68394	11.3	4.3776963815698
20	70195	11.4	3.749064261578
20	71996	11.5	5.0715392403203
20	73797	11.6	3.6716770686632
20	75598	11.7	0.973
20	77399	11.8	0.973
20	79200	11.9	2.8017491878533
20	81001	12	4.7197156259625
20	82802	12.1	1.7674840639663
20	84909	12.2	5.6609349619497
20	87016	12.3	0.973
20	89123	12.4	4.9901787623567
20	91230	12.5	2.4837941676609
20	93337	12.6	3.4909990937701
20	95444	12.7	3.6724870169489
20	97551	12.8	2.3407327781761
20	99658	12.9	0.973
20	101765	13	1.8573760056957
20	103872	13.1	7.8789769364471
20	106309	13.2	3.1398976254286
20	108746	13.3	1.6398620487892
20	111183	13.4	2.0827433013547
20	113620	13.5	0.973
20	116057	13.6	4.831229860285
20	118494	13.7	0.973
20	120931	13.8	8.0650314523516
20	123368	13.9	0.973
20	125805	14	4.8482934985553
20	128242	14.1	4.5249031921152
20	131033	14.2	0.973
20	133824	14.3	5.3932537553607
20	136615	14.4	0.973
20	139406	14.5	6.4736646729553
20	142197	14.6	3.4560322608957
20	144988	14.7	1.4332724639875
20	147779	14.8	0.973
20	150570	14.9	4.5180109659547
20	153361	15	1.4984436895481
20	156152	15.1	4.2231880264039
20	159321	15.2	6.2828641085855
20	162490	15.3	0.973
20	165659	15.4	2.0021581835646
20	168828	15.5	2.2664272862369
20	171997	15.6	1.2248024504037
20	175166	15.7	2.6634735356565
20	178335	15.8	4.2022844728474
20	181504	15.9	3.7166773075393
20	184673	16	3.9817995460457
20	187842	16.1	1.7274396407517
20	191368	16.2	1.8546688127842
20	194894	16.3	1.0366126934542
20	198420	16.4	7.3949341351682
20	201991	16.5	3.7940460087339
20	205517	16.6	0.973
20	209043	16.7	2.4259145388847
20	212569	16.8	6.8645753176582
20	216095	16.9	0.973
20	219621	17	2.752216406942
20	223192	17.1	6.8400997912072
20	227140	17.2	1.1392632429505
20	231088	17.3	0.973
20	235085	17.4	5.8859932498137
20	239082	17.5	1.0356934346908
20	243030	17.6	1.7658011192766
20	246978	17.7	4.9501127436468
20	250975	17.8	0.973
20	254972	17.9	6.9116280530164
20	258921	18	0.973
20	262870	18.1	6.4798099328411
20	267267	18.2	1.5170105640549
20	271664	18.3	4.6743426190509
20	276111	18.4	0.973
20	280558	18.5	7.0889327858779
20	285005	18.6	0.973
20	289452	18.7	5.4367639683593
20	293899	18.8	0.72161514636457
20	298346	18.9	5.7275552234326
20	302743	19	0.973
20	307140	19.1	6.2363562917873
20	312008	19.2	4.3142015786557
20	316876	19.3	0.73299408576002
20	321744	19.4	4.1132731793593
20	326612	19.5	0.973
20	331480	19.6	4.981803484681
20	336348	19.7	4.4157122607059
20	341216	19.8	0.973
20	346084	19.9	3.1613208605755
20	350952	20	3.4050148943617
20	355873	20.1	3.0060808206634
20	361236	20.2	5.8776656220343
19	314	1.3	0.072005220991578
19	375	1.4	-0.040098988451085
19	436	1.5	0.29625798792114
19	497	1.6	-0.4332344413735
19	558	1.7	-0.060930272610875
19	619	1.8	-0.26020172243005
19	680	1.9	0.23823725036344
19	741	2	0.56090530834627
19	802	2.1	-0.10455215955155
19	929	2.2	0.066448422661054
19	1056	2.3	-0.11323417592791
19	1183	2.4	-0.29591718525626
19	1310	2.5	0.45587052942718
19	1437	2.6	-0.093118004966506
19	1564	2.7	-0.56799740474673
19	1691	2.8	-0.034376402385519
19	1818	2.9	-0.0010202710749496
19	1945	3	0.28689737576059
19	2072	3.1	0.099269261653525
19	2289	3.2	-0.79503246406091
19	2506	3.3	0.35868484645615
19	2723	3.4	0.80332841956988
19	2940	3.5	-1.2010336488252
19	3157	3.6	0.1288440885255
19	3374	3.7	0.01998532791621
19	3591	3.8	1.0165871005506
19	3808	3.9	-0.73328014751898
19	4025	4	0.12265845073852
19	4242	4.1	-0.021835996280402
19	4573	4.2	0.22557616399133
19	4904	4.3	-0.069029289786684
19	5235	4.4	-0.29411374886987
19	5566	4.5	0.020501861954116
19	5897	4.6	0.24024116038344
19	6228	4.7	-0.35659300885165
19	6559	4.8	0.25655965525658
19	6890	4.9	0.53371805786156
19	7221	5	-0.39866095203909
19	7552	5.1	-0.59373804174829
19	8021	5.2	0.436211099918
19	8490	5.3	0.67406642099378
19	8959	5.4	-0.90923447541428
19	9428	5.5	0.37251275300516
19	9897	5.6	-0.047547912900363
19	10366	5.7	-0.47353169328996
19	10835	5.8	-0.10411822986789
19	11304	5.9	0.66294248751362
19	11773	6	0.477317097527
19	12242	6.1	-0.19454155524727
19	12873	6.2	-0.14012178911361
19	13504	6.3	-0.17088083964772
19	14135	6.4	-0.020308344508528
19	14766	6.5	-0.43657729590777
19	15397	6.6	-0.042702751490289
19	16028	6.7	0.97218208976553
19	16659	6.8	-0.19270240415352
19	17290	6.9	-0.44925581058486
19	17921	7	0.46112110777756
19	18552	7.1	-0.80241450716276
19	19369	7.2	0.27231234889477
19	20186	7.3	-0.28953469691331
19	21003	7.4	0.81894458432217
19	21820	7.5	0.185420440929
19	22637	7.6	-0.05444369146133
19	23454	7.7	-0.32297740222422
19	24271	7.8	0.40308831417931
19	25088	7.9	-0.51953107435256
19	25905	8	-0.052674112236097
19	26722	8.1	-0.51215722782072
19	27749	8.2	0.74914262010715
19	28776	8.3	-0.29911817254035
19	29803	8.4	-0.50893203401937
19	30830	8.5	0.54268278689126
19	31857	8.6	0.38307865897657
19	32884	8.7	0.13795347248671
19	33911	8.8	-0.661659596581
19	34938	8.9	-0.27809074791151
19	35965	9	1.0503126453376
19	36992	9.1	-0.26443655174226
19	38253	9.2	-0.097480263700724
19	39514	9.3	0.15975329338108
19	40775	9.4	-0.61150609820615
19	42036	9.5	0.53716611240525
19	43297	9.6	-0.82700914109591
19	44558	9.7	0.4995045795571
19	45819	9.8	0.62451173563023
19	47080	9.9	-0.76959454170428
19	48341	10	0.21758254084268
19	49602	10.1	-0.1138762691291
19	51121	10.2	-0.42812734991312
19	52640	10.3	-0.10446405066176
19	54159	10.4	0.91616713006516
19	55678	10.5	-0.14922739623582
19	57197	10.6	0.16090851698536
19	58716	10.7	-0.20649652224964
19	60235	10.8	-0.4784179852577
19	61754	10.9	0.92659115456044
19	63273	11	-0.68714589565058
19	64792	11.1	0.60289626976008
19	66593	11.2	-1.035678343405
19	68394	11.3	0.32280753133819
19	70195	11.4	0.19178629701493
19	71996	11.5	0.46283840390387
19	73797	11.6	0.1731180295581
19	75598	11.7	-0.60712306776548
19	77399	11.8	-0.6250809601741
19	79200	11.9	-0.0022694655694266
19	81001	12	0.39371592171957
19	82802	12.1	-0.21731546977534
19	84909	12.2	0.58637533988804
19	87016	12.3	-0.49162132346538
19	89123	12.4	0.44793509314768
19	91230	12.5	-0.070177672221341
19	93337	12.6	0.13763561053203
19	95444	12.7	0.17442620727234
19	97551	12.8	-0.10036722943187
19	99658	12.9	-0.54515673175921
19	101765	13	-0.19853807685429
19	103872	13.1	1.0416026395513
19	106309	13.2	0.063473088340835
19	108746	13.3	-0.24544677170926
19	111183	13.4	-0.1535861705197
19	113620	13.5	-0.69376797899604
19	116057	13.6	0.41599942015019
19	118494	13.7	-0.49300971617921
19	120931	13.8	1.0802212950773
19	123368	13.9	-0.96313450848683
19	125805	14	0.41929719960319
19	128242	14.1	0.35060371130239
19	131033	14.2	-0.51364789786749
19	133824	14.3	0.52988525547551
19	136615	14.4	-0.92550513749011
19	139406	14.5	0.7542601540219
19	142197	14.6	0.12990271761083
19	144988	14.7	-0.2874597231159
19	147779	14.8	-0.50805942136794
19	150570	14.9	0.35154932276345
19	153361	15	-0.27314367238432
19	156152	15.1	0.29042209093458
19	159321	15.2	0.71196837546307
19	162490	15.3	-0.47953422763385
19	165659	15.4	-0.16957224362997
19	168828	15.5	-0.11456250878982
19	171997	15.6	-0.32972987610847
19	175166	15.7	-0.031202750117494
19	178335	15.8	0.28669025921261
19	181504	15.9	0.18530359531287
19	184673	16	0.23910220975523
19	187842	16.1	-0.22645175773651
19	191368	16.2	-0.19965945782605
19	194894	16.3	-0.36859951072838
19	198420	16.4	0.94351183671971
19	201991	16.5	0.19879312184639
19	205517	16.6	-0.66117217701397
19	209043	16.7	-0.081404098239695
19	212569	16.8	0.83180537521837
19	216095	16.9	-0.85993860915767
19	219621	17	-0.013679109746612
19	223192	17.1	0.82710163793529
19	227140	17.2	-0.34860399521424
19	231088	17.3	-0.57933876193129
19	235085	17.4	0.63214817598929
19	239082	17.5	-0.3695478296606
19	243030	17.6	-0.21792228079864
19	246978	17.7	0.43957602253649
19	250975	17.8	-0.59157399835531
19	254972	17.9	0.84329960115721
19	258921	18	-0.61714773527349
19	262870	18.1	0.75315766662825
19	267267	18.2	-0.27057131752372
19	271664	18.3	0.37996338002849
19	276111	18.4	-0.96344737228936
19	280558	18.5	0.87868380269502
19	285005	18.6	-0.64200753550978
19	289452	18.7	0.53835907746109
19	293899	18.8	-0.43467540019194
19	298346	18.9	0.5973763199756
19	302743	19	-0.99047035025432
19	307140	19.1	0.70429059539453
19	312008	19.2	0.30570511566477
19	316876	19.3	-0.43253283193337
19	321744	19.4	0.26503182007001
19	326612	19.5	-0.7057819053065
19	331480	19.6	0.4457785898121
19	336348	19.7	0.32714002423454
19	341216	19.8	-0.79016482837034
19	346084	19.9	0.070879912143589
19	350952	20	0.12088277372531
19	355873	20.1	0.038169824611423
19	361236	20.2	0.62842565712053
18	253	1.2	20.068937976889
18	314	1.3	20.076138498988
18	375	1.4	20.072128600143
18	436	1.5	20.101754398935
18	497	1.6	20.058430954798
18	558	1.7	20.052337927537
18	619	1.8	20.026317755294
18	680	1.9	20.05014148033
18	741	2	20.106232011165
18	802	2.1	20.095776795209
18	929	2.2	20.102421637475
18	1056	2.3	20.091098219883
18	1183	2.4	20.061506501357
18	1310	2.5	20.1070935543
18	1437	2.6	20.097781753803
18	1564	2.7	20.040982013328
18	1691	2.8	20.03754437309
18	1818	2.9	20.037442345982
18	1945	3	20.066132083558
18	2072	3.1	20.076059009724
18	2289	3.2	19.996555763318
18	2506	3.3	20.032424247963
18	2723	3.4	20.11275708992
18	2940	3.5	19.992653725038
18	3157	3.6	20.00553813389
18	3374	3.7	20.007536666682
18	3591	3.8	20.109195376737
18	3808	3.9	20.035867361985
18	4025	4	20.048133207059
18	4242	4.1	20.045949607431
18	4573	4.2	20.06850722383
18	4904	4.3	20.061604294851
18	5235	4.4	20.032192919964
18	5566	4.5	20.03424310616
18	5897	4.6	20.058267222198
18	6228	4.7	20.022607921313
18	6559	4.8	20.048263886839
18	6890	4.9	20.101635692625
18	7221	5	20.061769597421
18	7552	5.1	20.002395793246
18	8021	5.2	20.046016903238
18	8490	5.3	20.113423545337
18	8959	5.4	20.022500097796
18	9428	5.5	20.059751373096
18	9897	5.6	20.054996581806
18	10366	5.7	20.007643412477
18	10835	5.8	19.997231589491
18	11304	5.9	20.063525838242
18	11773	6	20.111257547995
18	12242	6.1	20.09180339247
18	12873	6.2	20.077791213559
18	13504	6.3	20.060703129594
18	14135	6.4	20.058672295143
18	14766	6.5	20.015014565552
18	15397	6.6	20.010744290403
18	16028	6.7	20.10796249938
18	16659	6.8	20.088692258964
18	17290	6.9	20.043766677906
18	17921	7	20.089878788684
18	18552	7.1	20.009637337967
18	19369	7.2	20.036868572857
18	20186	7.3	20.007915103165
18	21003	7.4	20.089809561598
18	21820	7.5	20.108351605691
18	22637	7.6	20.102907236544
18	23454	7.7	20.070609496322
18	24271	7.8	20.11091832774
18	25088	7.9	20.058965220305
18	25905	8	20.053697809081
18	26722	8.1	20.002482086299
18	27749	8.2	20.07739634831
18	28776	8.3	20.047484531056
18	29803	8.4	19.996591327654
18	30830	8.5	20.050859606343
18	31857	8.6	20.089167472241
18	32884	8.7	20.102962819489
18	33911	8.8	20.036796859831
18	34938	8.9	20.00898778504
18	35965	9	20.114019049574
18	36992	9.1	20.087575394399
18	38253	9.2	20.077827368029
18	39514	9.3	20.093802697368
18	40775	9.4	20.032652087547
18	42036	9.5	20.086368698787
18	43297	9.6	20.003667784678
18	44558	9.7	20.053618242634
18	45819	9.8	20.116069416197
18	47080	9.9	20.039109962026
18	48341	10	20.06086821611
18	49602	10.1	20.049480589197
18	51121	10.2	20.006667854206
18	52640	10.3	19.99622144914
18	54159	10.4	20.087838162147
18	55678	10.5	20.072915422523
18	57197	10.6	20.089006274221
18	58716	10.7	20.068356621997
18	60235	10.8	20.020514823471
18	61754	10.9	20.113173938927
18	63273	11	20.044459349362
18	64792	11.1	20.104748976338
18	66593	11.2	20.001181141997
18	68394	11.3	20.033461895131
18	70195	11.4	20.052640524833
18	71996	11.5	20.098924365223
18	73797	11.6	20.116236168179
18	75598	11.7	20.055523861402
18	77399	11.8	19.993015765385
18	79200	11.9	19.992788818828
18	81001	12	20.032160411
18	82802	12.1	20.010428864022
18	84909	12.2	20.069066398011
18	87016	12.3	20.019904265665
18	89123	12.4	20.064697774979
18	91230	12.5	20.057680007757
18	93337	12.6	20.07144356881
18	95444	12.7	20.088886189538
18	97551	12.8	20.078849466594
18	99658	12.9	20.024333793418
18	101765	13	20.004479985733
18	103872	13.1	20.108640249688
18	106309	13.2	20.114987558522
18	108746	13.3	20.090442881351
18	111183	13.4	20.075084264299
18	113620	13.5	20.0057074664
18	116057	13.6	20.047307408415
18	118494	13.7	19.998006436797
18	120931	13.8	20.106028566305
18	123368	13.9	20.009715115456
18	125805	14	20.051644835416
18	128242	14.1	20.086705206546
18	131033	14.2	20.03534041676
18	133824	14.3	20.088328942307
18	136615	14.4	19.995778428558
18	139406	14.5	20.07120444396
18	142197	14.6	20.084194715722
18	144988	14.7	20.05544874341
18	147779	14.8	20.004642801273
18	150570	14.9	20.039797733549
18	153361	15	20.012483366311
18	156152	15.1	20.041525575405
18	159321	15.2	20.112722412951
18	162490	15.3	20.064768990187
18	165659	15.4	20.047811765824
18	168828	15.5	20.036355514945
18	171997	15.6	20.003382527335
18	175166	15.7	20.000262252323
18	178335	15.8	20.028931278244
18	181504	15.9	20.047461637775
18	184673	16	20.071371858751
18	187842	16.1	20.048726682977
18	191368	16.2	20.028760737195
18	194894	16.3	19.991900786122
18	198420	16.4	20.086251969794
18	201991	16.5	20.106131281978
18	205517	16.6	20.040014064277
18	209043	16.7	20.031873654453
18	212569	16.8	20.115054191975
18	216095	16.9	20.029060331059
18	219621	17	20.027692420084
18	223192	17.1	20.110402583878
18	227140	17.2	20.075542184357
18	231088	17.3	20.017608308163
18	235085	17.4	20.080823125762
18	239082	17.5	20.043868342796
18	243030	17.6	20.022076114716
18	246978	17.7	20.06603371697
18	250975	17.8	20.006876317135
18	254972	17.9	20.09120627725
18	258921	18	20.029491503723
18	262870	18.1	20.104807270386
18	267267	18.2	20.077750138633
18	271664	18.3	20.115746476636
18	276111	18.4	20.019401739407
18	280558	18.5	20.107270119677
18	285005	18.6	20.043069366126
18	289452	18.7	20.096905273872
18	293899	18.8	20.053437733853
18	298346	18.9	20.11317536585
18	302743	19	20.014128330825
18	307140	19.1	20.084557390364
18	312008	19.2	20.115127901931
18	316876	19.3	20.071874618737
18	321744	19.4	20.098377800744
18	326612	19.5	20.027799610214
18	331480	19.6	20.072377469195
18	336348	19.7	20.105091471619
18	341216	19.8	20.026074988781
18	346084	19.9	20.033162979996
18	350952	20	20.045251257368
18	355873	20.1	20.04906823983
18	361236	20.2	20.111910805542
17	192	1.1	2141.902346661
17	253	1.2	2141.902346661
17	314	1.3	2140.3214366479
17	375	1.4	2138.32747558
17	436	1.5	2136.3339127751
17	497	1.6	2134.340294709
17	558	1.7	2132.3524412596
17	619	1.8	2130.3651916482
17	680	1.9	2128.3805207176
17	741	2	2126.393488781
17	802	2.1	2124.4008980969
17	929	2.2	2122.4093435574
17	1056	2.3	2120.4171304933
17	1183	2.4	2118.4277069544
17	1310	2.5	2116.4450373697
17	1437	2.6	2114.4578624373
17	1564	2.7	2112.4716077858
17	1691	2.8	2110.490966627
17	1818	2.9	2108.5106652086
17	1945	3	2106.5303738735
17	2072	3.1	2104.5482604349
17	2289	3.2	2102.5740685332
17	2506	3.3	2100.6076946332
17	2723	3.4	2098.6377935832
17	2940	3.5	2096.6599929527
17	3157	3.6	2094.6940027621
17	3374	3.7	2092.7267455751
17	3591	3.8	2090.7602572635
17	3808	3.9	2088.787239194
17	4025	4	2086.8214157186
17	4242	4.1	2084.8543887771
17	4573	4.2	2082.88757608
17	4904	4.3	2080.9185501375
17	5235	4.4	2078.9502014773
17	5566	4.5	2076.9847385206
17	5897	4.6	2075.0305200801
17	6228	4.7	2073.0773091106
17	6559	4.8	2071.1275705316
17	6890	4.9	2069.1753336553
17	7221	5	2067.2178996005
17	7552	5.1	2065.2643475807
17	8021	5.2	2063.3165771951
17	8490	5.3	2061.3645591231
17	8959	5.4	2059.4216791474
17	9428	5.5	2057.4882873257
17	9897	5.6	2055.551298485
17	10366	5.7	2053.6147687716
17	10835	5.8	2051.6828115257
17	11304	5.9	2049.7518596553
17	11773	6	2047.8145063487
17	12242	6.1	2045.8764501071
17	12873	6.2	2043.9436010899
17	13504	6.3	2042.0121000566
17	14135	6.4	2040.0822429119
17	14766	6.5	2038.1525811352
17	15397	6.6	2036.2271192703
17	16028	6.7	2034.3020682095
17	16659	6.8	2032.3501953279
17	17290	6.9	2030.3825638867
17	17921	7	2028.4472268608
17	18552	7.1	2026.5144251856
17	19369	7.2	2024.5893433583
17	20186	7.3	2022.6616416757
17	21003	7.4	2020.7367255408
17	21820	7.5	2018.8042816583
17	22637	7.6	2016.8727075552
17	23454	7.7	2014.941656429
17	24271	7.8	2013.0137077688
17	25088	7.9	2011.0818871108
17	25905	8	2009.1550569801
17	26722	8.1	2007.2314139068
17	27749	8.2	2005.3235208071
17	28776	8.3	2003.408482174
17	29803	8.4	2001.4962966144
17	30830	8.5	1999.5889653919
17	31857	8.6	1997.676457908
17	32884	8.7	1995.760296512
17	33911	8.8	1993.8487862058
17	34938	8.9	1991.9577261668
17	35965	9	1990.0692907305
17	36992	9.1	1988.1709425107
17	38253	9.2	1986.2750900261
17	39514	9.3	1984.4824815617
17	40775	9.4	1982.6147142504
17	42036	9.5	1980.7526310353
17	43297	9.6	1978.885554732
17	44558	9.7	1977.0261656777
17	45819	9.8	1975.1621336081
17	47080	9.9	1973.2922965516
17	48341	10	1971.4296130616
17	49602	10.1	1969.5825645649
17	51121	10.2	1967.7443263266
17	52640	10.3	1965.9100133775
17	54159	10.4	1964.0766582078
17	55678	10.5	1962.2349031524
17	57197	10.6	1960.3945162896
17	58716	10.7	1958.5553817461
17	60235	10.8	1956.7365580255
17	61754	10.9	1954.9220702752
17	63273	11	1953.0991846974
17	64792	11.1	1951.2825268206
17	66593	11.2	1949.4604048091
17	68394	11.3	1947.6476692978
17	70195	11.4	1945.832008136
17	71996	11.5	1944.0267139715
17	73797	11.6	1942.2208099552
17	75598	11.7	1940.4133504598
17	77399	11.8	1938.6113460125
17	79200	11.9	1936.8149579663
17	81001	12	1935.0185903115
17	82802	12.1	1933.2215722781
17	84909	12.2	1931.4481850278
17	87016	12.3	1929.6696011345
17	89123	12.4	1927.8953741443
17	91230	12.5	1926.1171774121
17	93337	12.6	1924.3396026166
17	95444	12.7	1922.5608080509
17	97551	12.8	1920.7905933203
17	99658	12.9	1919.0288153332
17	101765	13	1917.2718207135
17	103872	13.1	1915.516568126
17	106309	13.2	1913.752176207
17	108746	13.3	1911.9872273562
17	111183	13.4	1910.2244321285
17	113620	13.5	1908.4738364413
17	116057	13.6	1906.7335107316
17	118494	13.7	1904.9895661823
17	120931	13.8	1903.2499103965
17	123368	13.9	1901.5008576078
17	125805	14	1899.760183267
17	128242	14.1	1898.0158613985
17	131033	14.2	1896.2731612281
17	133824	14.3	1894.5464931338
17	136615	14.4	1892.815258429
17	139406	14.5	1891.0919998312
17	142197	14.6	1889.3622409348
17	144988	14.7	1887.6313625223
17	147779	14.8	1885.9029614699
17	150570	14.9	1884.1749267865
17	153361	15	1882.4401845304
17	156152	15.1	1880.7078067387
17	159321	15.2	1878.9729149122
17	162490	15.3	1877.2318599416
17	165659	15.4	1875.4949560522
17	168828	15.5	1873.7595200625
17	171997	15.6	1872.0250757816
17	175166	15.7	1870.2934858027
17	178335	15.8	1868.56216593
17	181504	15.9	1866.8283643271
17	184673	16	1865.0929586462
17	187842	16.1	1863.3554831805
17	191368	16.2	1861.6199679912
17	194894	16.3	1859.8861811511
17	198420	16.4	1858.1555850875
17	201991	16.5	1856.4168215271
17	205517	16.6	1854.6763371168
17	209043	16.7	1852.941576134
17	212569	16.8	1851.2075198248
17	216095	16.9	1849.466263004
17	219621	17	1847.7324502297
17	223192	17.1	1845.9987558683
17	227140	17.2	1844.2579017134
17	231088	17.3	1842.520065244
17	235085	17.4	1840.7872438124
17	239082	17.5	1839.048950199
17	243030	17.6	1837.3138555712
17	246978	17.7	1835.5806473846
17	250975	17.8	1833.8436340143
17	254972	17.9	1832.111741596
17	258921	18	1830.3725491666
17	262870	18.1	1828.6386990679
17	267267	18.2	1826.8983292704
17	271664	18.3	1825.1603016698
17	276111	18.4	1823.4189849215
17	280558	18.5	1821.6860082418
17	285005	18.6	1819.9454252482
17	289452	18.7	1818.2103997837
17	293899	18.8	1816.4707140215
17	298346	18.9	1814.7347910207
17	302743	19	1812.9936968402
17	307140	19.1	1811.2611766524
17	312008	19.2	1809.522559783
17	316876	19.3	1807.7812965815
17	321744	19.4	1806.0437775944
17	326612	19.5	1804.3039643631
17	331480	19.6	1802.5702607229
17	336348	19.7	1800.8326982066
17	341216	19.8	1799.0923038073
17	346084	19.9	1797.3587494587
17	350952	20	1795.6245815391
17	355873	20.1	1793.8893671996
17	361236	20.2	1792.1538224434
16	192	1.1	120.22237122157
16	253	1.2	120.22237122157
16	314	1.3	123.73112776672
16	375	1.4	123.96591157846
16	436	1.5	124.20064849577
16	497	1.6	124.45855303095
16	558	1.7	124.72750494083
16	619	1.8	124.99637515283
16	680	1.9	125.26489647537
16	741	2	125.53373723648
16	802	2.1	125.8033300831
16	929	2.2	126.07278274178
16	1056	2.3	126.3423244973
16	1183	2.4	126.62321201897
16	1310	2.5	126.9300537404
16	1437	2.6	127.23759271804
16	1564	2.7	127.54498927124
16	1691	2.8	127.85151706963
16	1818	2.9	128.15799228915
16	1945	3	128.46446594815
16	2072	3.1	128.77734264811
16	2289	3.2	129.14277197506
16	2506	3.3	129.5067541645
16	2723	3.4	129.87138924086
16	2940	3.5	130.23748655522
16	3157	3.6	130.60139771881
16	3374	3.7	130.96554340756
16	3591	3.8	131.33477518829
16	3808	3.9	131.72399172214
16	4025	4	132.11178898111
16	4242	4.1	132.49982364738
16	4573	4.2	132.88781604974
16	4904	4.3	133.2762450582
16	5235	4.4	133.66454045943
16	5566	4.5	134.05226659901
16	5897	4.6	134.49313521061
16	6228	4.7	134.95007906129
16	6559	4.8	135.40621056372
16	6890	4.9	135.86292653017
16	7221	5	136.32085835033
16	7552	5.1	136.777881988
16	8021	5.2	137.2335530415
16	8490	5.3	137.69021781983
16	8959	5.4	138.21081488158
16	9428	5.5	138.7318612848
16	9897	5.6	139.25387707959
16	10366	5.7	139.77576914024
16	10835	5.8	140.29642892727
16	11304	5.9	140.81681776698
16	11773	6	141.33893178485
16	12242	6.1	141.87640195634
16	12873	6.2	142.42539365657
16	13504	6.3	142.97400248575
16	14135	6.4	143.52214439735
16	14766	6.5	144.0702308181
16	15397	6.6	144.61712432795
16	16028	6.7	145.16390115611
16	16659	6.8	145.21998398081
16	17290	6.9	144.77815057335
16	17921	7	145.14185235189
16	18552	7.1	145.70793751407
16	19369	7.2	146.27176166238
16	20186	7.3	146.83635312234
16	21003	7.4	147.40012874216
16	21820	7.5	147.96739925966
16	22637	7.6	148.54416525716
16	23454	7.7	149.12077509432
16	24271	7.8	149.69645853838
16	25088	7.9	150.27329815693
16	25905	8	150.84864760928
16	26722	8.1	151.43246686501
16	27749	8.2	152.04964137528
16	28776	8.3	152.66912735734
16	29803	8.4	153.28769041338
16	30830	8.5	153.90468316491
16	31857	8.6	154.52335035854
16	32884	8.7	155.14319953741
16	33911	8.8	155.78098729929
16	34938	8.9	156.45823196788
16	35965	9	157.13453668845
16	36992	9.1	157.81439147067
16	38253	9.2	158.4933524561
16	39514	9.3	159.15642178161
16	40775	9.4	159.90141524951
16	42036	9.5	160.64414151067
16	43297	9.6	161.38885935725
16	44558	9.7	162.13051100268
16	45819	9.8	162.87401460046
16	47080	9.9	163.61983362439
16	48341	10	164.36279931631
16	49602	10.1	165.14881185564
16	51121	10.2	165.95294589854
16	52640	10.3	166.75536283074
16	54159	10.4	167.55736078401
16	55678	10.5	168.36303325231
16	57197	10.6	169.16810720721
16	58716	10.7	169.97985117945
16	60235	10.8	170.8314470277
16	61754	10.9	171.68101272082
16	63273	11	172.53451038104
16	64792	11.1	173.38509215432
16	66593	11.2	174.2382323033
16	68394	11.3	175.08697757634
16	70195	11.4	175.93709267531
16	71996	11.5	176.81327955357
16	73797	11.6	177.69891054743
16	75598	11.7	178.58530436168
16	77399	11.8	179.46902297304
16	79200	11.9	180.34998725256
16	81001	12	181.230941532
16	82802	12.1	182.11932150504
16	84909	12.2	183.04947302927
16	87016	12.3	183.9823502218
16	89123	12.4	184.91294219432
16	91230	12.5	185.84561631867
16	93337	12.6	186.77796423377
16	95444	12.7	187.71095192513
16	97551	12.8	188.66362653023
16	99658	12.9	189.62990410059
16	101765	13	190.5935581505
16	103872	13.1	191.55625675279
16	106309	13.2	192.52396797927
16	108746	13.3	193.4919846646
16	111183	13.4	194.45882015819
16	113620	13.5	195.44434609782
16	116057	13.6	196.43402206078
16	118494	13.7	197.4257559596
16	120931	13.8	198.41505095509
16	123368	13.9	199.40968977085
16	125805	14	200.39956399093
16	128242	14.1	201.39151246088
16	131033	14.2	202.39325812885
16	133824	14.3	203.41242064814
16	136615	14.4	204.43427860051
16	139406	14.5	205.45142867107
16	142197	14.6	206.47241553033
16	144988	14.7	207.49406318187
16	147779	14.8	208.51424857636
16	150570	14.9	209.52499284339
16	153361	15	210.53123991374
16	156152	15.1	211.53611546315
16	159321	15.2	212.54244929265
16	162490	15.3	213.55235808883
16	165659	15.4	214.55985902681
16	168828	15.5	215.56650850124
16	171997	15.6	216.5725827294
16	175166	15.7	217.57700130352
16	178335	15.8	218.58126320103
16	181504	15.9	219.58696464017
16	184673	16	220.59359653382
16	187842	16.1	221.60142901792
16	191368	16.2	222.60812443258
16	194894	16.3	223.61381730844
16	198420	16.4	224.61765935636
16	201991	16.5	225.62623900709
16	205517	16.6	226.63581684652
16	209043	16.7	227.64207477936
16	212569	16.8	228.64792396239
16	216095	16.9	229.65794984287
16	219621	17	230.66365776207
16	223192	17.1	231.66929699514
16	227140	17.2	232.67908930704
16	231088	17.3	233.68713119335
16	235085	17.4	234.69226407859
16	239082	17.5	235.70057113383
16	243030	17.6	236.70702259938
16	246978	17.7	237.71237982407
16	250975	17.8	238.71994426707
16	254972	17.9	239.72453827288
16	258921	18	240.73336669146
16	262870	18.1	241.7390962609
16	267267	18.2	242.74860761848
16	271664	18.3	243.75676037155
16	276111	18.4	244.76682101333
16	280558	18.5	245.77204395112
16	285005	18.6	246.78167897437
16	289452	18.7	247.78809032135
16	293899	18.8	248.79720490044
16	298346	18.9	249.80413686843
16	302743	19	250.81406840848
16	307140	19.1	251.81902655557
16	312008	19.2	252.82752111734
16	316876	19.3	253.83755069898
16	321744	19.4	254.84540842788
16	326612	19.5	255.85459694613
16	331480	19.6	256.86024156147
16	336348	19.7	257.86812453972
16	341216	19.8	258.87765016774
16	346084	19.9	259.88320818564
16	350952	20	260.88912210884
16	355873	20.1	261.8956430139
16	361236	20.2	262.90235557896
146	52640	10.3	0.973
146	54159	10.4	2.2649288304104
146	55678	10.5	2.32867810228
146	57197	10.6	4.4854135059177
146	58716	10.7	0.973
146	60235	10.8	6.9728850113582
146	61754	10.9	0.973
146	63273	11	2.0741683170192
146	64792	11.1	6.4763861861963
146	66593	11.2	1.8012290951789
146	68394	11.3	1.3443480804954
146	70195	11.4	6.9363179750961
146	71996	11.5	3.2970023566777
146	73797	11.6	0.973
146	75598	11.7	3.0298165568387
146	77399	11.8	2.1077811699916
146	79200	11.9	4.8231224211029
146	81001	12	1.9979317573829
146	82802	12.1	3.4744510358486
146	84909	12.2	1.7903490284208
146	87016	12.3	4.261913550204
146	89123	12.4	0.56161414398547
146	91230	12.5	3.9606586860295
146	93337	12.6	0.94136416996902
146	95444	12.7	3.3447804262635
146	97551	12.8	5.244586179074
146	99658	12.9	2.3412907261535
146	101765	13	1.1097209911664
146	103872	13.1	3.8282087411178
146	106309	13.2	0.973
146	108746	13.3	6.6848804671937
146	111183	13.4	3.9896651295967
146	113620	13.5	0.973
146	116057	13.6	2.4463830630102
146	118494	13.7	7.450547174431
146	120931	13.8	0.973
146	123368	13.9	4.6707231473073
146	125805	14	3.5785680337105
146	128242	14.1	1.5919281483756
146	131033	14.2	2.5918279298729
146	133824	14.3	5.9879878007008
146	136615	14.4	0.973
146	139406	14.5	4.8932400893717
146	142197	14.6	1.5470699932363
146	144988	14.7	1.5870484209778
146	147779	14.8	1.5762662946311
146	150570	14.9	2.4254397049642
146	153361	15	3.613770236198
146	156152	15.1	7.6736922364481
146	159321	15.2	0.973
146	162490	15.3	2.6964954532873
146	165659	15.4	1.7377986886616
146	168828	15.5	5.7053012526552
146	171997	15.6	2.3087059139839
146	175166	15.7	0.973
146	178335	15.8	6.2799285283369
146	181504	15.9	0.973
146	184673	16	4.8150870903525
146	187842	16.1	1.3033009492488
146	191368	16.2	6.2466945423518
146	194894	16.3	1.9295671573274
146	198420	16.4	0.973
146	201991	16.5	6.7324041136876
146	205517	16.6	0.973
146	209043	16.7	5.5138444491508
146	212569	16.8	1.8544421912557
146	216095	16.9	4.2716826706892
146	219621	17	2.4532790208308
146	223192	17.1	0.973
146	227140	17.2	0.90858702201914
146	231088	17.3	6.3642297531486
146	235085	17.4	5.3586820498197
146	239082	17.5	1.7924610389296
146	243030	17.6	0.973
146	246978	17.7	6.5787362058353
146	250975	17.8	0.973
146	254972	17.9	4.4642829166245
146	258921	18	1.70814557654
146	262870	18.1	2.3151188753146
146	267267	18.2	5.4548038264787
146	271664	18.3	3.235655365946
146	276111	18.4	3.2167854800811
146	280558	18.5	1.7832192945181
146	285005	18.6	4.275195195184
146	289452	18.7	2.6365592142959
146	293899	18.8	3.0900978787964
146	298346	18.9	0.973
146	302743	19	5.8819327849617
146	307140	19.1	3.0517292030183
146	312008	19.2	0.973
146	316876	19.3	0.93682399418761
146	321744	19.4	3.8337767968081
146	326612	19.5	3.7918380874752
146	331480	19.6	5.2036012480327
146	336348	19.7	0.973
146	341216	19.8	6.4864470919164
146	346084	19.9	0.973
146	350952	20	4.1879221256718
146	355873	20.1	5.6165726911986
146	361236	20.2	3.0888960480104
145	52640	10.3	-0.52549890584778
145	54159	10.4	-0.11527903187087
145	55678	10.5	-0.10180228387473
145	57197	10.6	0.34301494695246
145	58716	10.7	-0.54752132657448
145	60235	10.8	0.85482519017532
145	61754	10.9	-0.98157599580009
145	63273	11	-0.15326964005361
145	64792	11.1	0.75504152595531
145	66593	11.2	-0.21114097605459
145	68394	11.3	-0.30516477131751
145	70195	11.4	0.84764330894686
145	71996	11.5	0.096037848386921
145	73797	11.6	-0.74352319550236
145	75598	11.7	0.04337207498029
145	77399	11.8	-0.14715402422006
145	79200	11.9	0.4132407349767
145	81001	12	-0.1705102426931
145	82802	12.1	0.134516809904
145	84909	12.2	-0.21329256296156
145	87016	12.3	0.29697045902719
145	89123	12.4	-0.46751085952856
145	91230	12.5	0.23573200870306
145	93337	12.6	-0.38861678105313
145	95444	12.7	0.10934302504175
145	97551	12.8	0.50017408828715
145	99658	12.9	-0.099754968960752
145	101765	13	-0.35394480847753
145	103872	13.1	0.20842582834884
145	106309	13.2	-0.47791741273834
145	108746	13.3	0.79739138968289
145	111183	13.4	0.23932827920653
145	113620	13.5	-0.85233673877081
145	116057	13.6	-0.076513932878157
145	118494	13.7	0.95349501408634
145	120931	13.8	-0.81671170003244
145	123368	13.9	0.3820397815667
145	125805	14	0.15551113074178
145	128242	14.1	-0.25455561992711
145	131033	14.2	-0.047495371918203
145	133824	14.3	0.65118510930333
145	136615	14.4	-0.66483055560383
145	139406	14.5	0.42661579495761
145	142197	14.6	-0.26404005417135
145	144988	14.7	-0.25525326093192
145	147779	14.8	-0.25696771852672
145	150570	14.9	-0.080649322783586
145	153361	15	0.16518045787237
145	156152	15.1	0.99840348707509
145	159321	15.2	-0.7240173548227
145	162490	15.3	-0.025735235074542
145	165659	15.4	-0.22371149729008
145	168828	15.5	0.59480531415904
145	171997	15.6	-0.10674697186332
145	175166	15.7	-0.50230870877858
145	178335	15.8	0.71283062708098
145	181504	15.9	-0.73754242777358
145	184673	16	0.4120451922994
145	187842	16.1	-0.31386250525248
145	191368	16.2	0.70551582248882
145	194894	16.3	-0.18534880024379
145	198420	16.4	-0.59615518723149
145	201991	16.5	0.80561812110243
145	205517	16.6	-0.75220190903636
145	209043	16.7	0.55526161789892
145	212569	16.8	-0.2004400391597
145	216095	16.9	0.29811839228493
145	219621	17	-0.077220752649012
145	223192	17.1	-0.52942801581228
145	227140	17.2	-0.39514928841964
145	231088	17.3	0.73217675965278
145	235085	17.4	0.52113743196241
145	239082	17.5	-0.21401272637302
145	243030	17.6	-0.55973971250932
145	246978	17.7	0.77281345459632
145	250975	17.8	-1.0597675931174
145	254972	17.9	0.34023946214003
145	258921	18	-0.22983719236219
145	262870	18.1	-0.10374946170487
145	267267	18.2	0.54402883651203
145	271664	18.3	0.084789465065107
145	276111	18.4	0.080589974229213
145	280558	18.5	-0.21514927130191
145	285005	18.6	0.2988888695603
145	289452	18.7	-0.039440643461397
145	293899	18.8	0.054060596856296
145	298346	18.9	-0.4729668945307
145	302743	19	0.62964892375749
145	307140	19.1	0.045421865512587
145	312008	19.2	-0.63015043397897
145	316876	19.3	-0.38954454711639
145	321744	19.4	0.21029217129108
145	326612	19.5	0.20073968584182
145	331480	19.6	0.49008250522895
145	336348	19.7	-0.86038469567431
145	341216	19.8	0.75565854939633
145	346084	19.9	-0.73205133609008
145	350952	20	0.28300906945951
145	355873	20.1	0.57520581313874
145	361236	20.2	0.053247028263286
144	51121	10.2	20.115315603111
144	52640	10.3	20.062765712526
144	54159	10.4	20.051237809339
144	55678	10.5	20.041057580952
144	57197	10.6	20.075359075647
144	58716	10.7	20.020606942989
144	60235	10.8	20.106089462007
144	61754	10.9	20.007931862427
144	63273	11	19.992604898422
144	64792	11.1	20.068109051017
144	66593	11.2	20.046994953412
144	68394	11.3	20.01647847628
144	70195	11.4	20.101242807175
144	71996	11.5	20.110846592013
144	73797	11.6	20.036494272463
144	75598	11.7	20.040831479961
144	77399	11.8	20.026116077539
144	79200	11.9	20.067440151037
144	81001	12	20.050389126767
144	82802	12.1	20.063840807758
144	84909	12.2	20.042511551462
144	87016	12.3	20.072208597364
144	89123	12.4	20.025457511412
144	91230	12.5	20.049030712282
144	93337	12.6	20.010169034177
144	95444	12.7	20.021103336681
144	97551	12.8	20.071120745509
144	99658	12.9	20.061145248613
144	101765	13	20.025750767766
144	103872	13.1	20.0465933506
144	106309	13.2	19.998801609327
144	108746	13.3	20.078540748295
144	111183	13.4	20.102473576216
144	113620	13.5	20.017239902338
144	116057	13.6	20.009588509051
144	118494	13.7	20.104938010459
144	120931	13.8	20.023266840456
144	123368	13.9	20.061470818613
144	125805	14	20.077021931687
144	128242	14.1	20.051566369694
144	131033	14.2	20.046816832502
144	133824	14.3	20.111935343433
144	136615	14.4	20.045452287872
144	139406	14.5	20.088113867368
144	142197	14.6	20.061709861951
144	144988	14.7	20.036184535858
144	147779	14.8	20.010487764005
144	150570	14.9	20.002422831727
144	153361	15	20.018940877514
144	156152	15.1	20.118781226221
144	159321	15.2	20.046379490739
144	162490	15.3	20.043805967232
144	165659	15.4	20.021434817503
144	168828	15.5	20.080915348919
144	171997	15.6	20.070240651732
144	175166	15.7	20.020009780854
144	178335	15.8	20.091292843563
144	181504	15.9	20.017538600785
144	184673	16	20.058743120015
144	187842	16.1	20.02735686949
144	191368	16.2	20.097908451739
144	194894	16.3	20.079373571714
144	198420	16.4	20.019758052991
144	201991	16.5	20.100319865101
144	205517	16.6	20.025099674198
144	209043	16.7	20.080625835988
144	212569	16.8	20.060581832072
144	216095	16.9	20.0903936713
144	219621	17	20.082671596035
144	223192	17.1	20.029728794454
144	227140	17.2	19.990213865612
144	231088	17.3	20.063431541577
144	235085	17.4	20.115545284774
144	239082	17.5	20.094144012136
144	243030	17.6	20.038170040885
144	246978	17.7	20.115451386345
144	250975	17.8	20.009474627033
144	254972	17.9	20.043498573247
144	258921	18	20.020514854011
144	262870	18.1	20.010139907841
144	267267	18.2	20.064542791492
144	271664	18.3	20.073021737998
144	276111	18.4	20.081080735421
144	280558	18.5	20.059565808291
144	285005	18.6	20.089454695247
144	289452	18.7	20.085510630901
144	293899	18.8	20.090916690587
[...]
121	71996	11.5	194.17518696246
121	73797	11.6	195.3843399965
121	75598	11.7	196.595144387
121	77399	11.8	197.79983335324
121	79200	11.9	199.00486647677
121	81001	12	200.2102679762
121	82802	12.1	201.42267619543
121	84909	12.2	202.62830318298
121	87016	12.3	203.83567145238
121	89123	12.4	205.04398621189
121	91230	12.5	206.25501665323
121	93337	12.6	207.48105155056
121	95444	12.7	208.72445664789
121	97551	12.8	209.97043546629
121	99658	12.9	211.21763148502
121	101765	13	212.46936203957
121	103872	13.1	213.71511806244
121	106309	13.2	214.96190932809
121	108746	13.3	216.20599268113
121	111183	13.4	217.45012621856
121	113620	13.5	218.69796636533
121	116057	13.6	219.94756208196
121	118494	13.7	221.1968187844
121	120931	13.8	222.44105072316
121	123368	13.9	223.70483320392
121	125805	14	224.96637945215
121	128242	14.1	226.22910547382
121	131033	14.2	227.496422694
121	133824	14.3	228.76536663132
121	136615	14.4	230.03583571303
121	139406	14.5	231.30209280638
121	142197	14.6	232.56483401266
121	144988	14.7	233.82504059705
121	147779	14.8	235.0900828652
121	150570	14.9	236.35558362609
121	153361	15	237.61754746727
121	156152	15.1	238.88222811691
121	159321	15.2	240.14938983773
121	162490	15.3	241.45746510883
121	165659	15.4	242.77216867361
121	168828	15.5	244.07850606804
121	171997	15.6	245.38668394682
121	175166	15.7	246.69268819865
121	178335	15.8	248.00797589033
121	181504	15.9	249.31482165887
121	184673	16	250.6256738504
121	187842	16.1	251.93690087367
121	191368	16.2	253.2482593333
121	194894	16.3	254.56084235859
121	198420	16.4	255.87167989871
121	201991	16.5	257.18035725609
121	205517	16.6	258.48448956288
121	209043	16.7	259.79075372872
121	212569	16.8	261.09728212443
121	216095	16.9	262.40223926666
121	219621	17	263.69976844153
121	223192	17.1	265.00199650847
121	227140	17.2	266.31261510662
121	231088	17.3	267.6204872598
121	235085	17.4	268.92736324143
121	239082	17.5	270.24916757757
121	243030	17.6	271.56960096558
121	246978	17.7	272.89188578971
121	250975	17.8	274.20575382582
121	254972	17.9	275.52096851534
121	258921	18	276.83953538904
121	262870	18.1	278.16410171499
121	267267	18.2	279.47825891352
121	271664	18.3	280.80031850918
121	276111	18.4	282.11523494326
121	280558	18.5	283.44807449665
121	285005	18.6	284.78914419892
121	289452	18.7	286.12282521336
121	293899	18.8	287.46219627606
121	298346	18.9	288.80188882738
121	302743	19	290.13967601269
121	307140	19.1	291.48259138523
121	312008	19.2	292.82358153562
121	316876	19.3	294.16077750311
121	321744	19.4	295.49569845139
121	326612	19.5	296.83754178494
121	331480	19.6	298.18313777832
121	336348	19.7	299.53164631992
121	341216	19.8	300.8808866249
121	346084	19.9	302.22634853602
121	350952	20	303.57673247746
121	355873	20.1	304.92742716741
121	361236	20.2	306.27292327228
139	39514	9.3	5.3928977807714
139	40775	9.4	0.973
139	42036	9.5	3.2848441015258
139	43297	9.6	2.333863405496
139	44558	9.7	2.5365397107844
139	45819	9.8	1.9209665382583
139	47080	9.9	0.973
139	48341	10	4.9119051858829
139	49602	10.1	2.0396464503641
139	51121	10.2	1.6620511197079
139	52640	10.3	0.973
139	54159	10.4	6.670424396944
139	55678	10.5	0.973
139	57197	10.6	3.3383728916404
139	58716	10.7	3.7892204251101
139	60235	10.8	0.973
139	61754	10.9	3.7784645867376
139	63273	11	5.0590444417506
139	64792	11.1	0.973
139	66593	11.2	2.4796964256639
139	68394	11.3	5.0973560598281
139	70195	11.4	0.973
139	71996	11.5	1.8599852470846
139	73797	11.6	5.4750351795055
139	75598	11.7	3.0975105345888
139	77399	11.8	2.6112064334385
139	79200	11.9	0.973
139	81001	12	3.9957971998495
139	82802	12.1	3.7327224125771
139	84909	12.2	1.0677551061439
139	87016	12.3	1.548846307006
139	89123	12.4	1.478921470871
139	91230	12.5	1.7410268731785
139	93337	12.6	4.0433823102577
139	95444	12.7	1.3632501504458
139	97551	12.8	3.1336840698129
139	99658	12.9	1.9349534534697
139	101765	13	3.9067731628389
139	103872	13.1	0.973
139	106309	13.2	0.973
139	108746	13.3	4.7730050214454
139	111183	13.4	0.973
139	113620	13.5	1.8395389071382
139	116057	13.6	5.6841630018013
139	118494	13.7	0.973
139	120931	13.8	2.2297762504953
139	123368	13.9	5.557675245642
139	125805	14	3.4532907744319
139	128242	14.1	1.8758749810028
139	131033	14.2	0.973
139	133824	14.3	1.6551075676331
139	136615	14.4	0.973
139	139406	14.5	4.81563907907
139	142197	14.6	0.973
139	144988	14.7	2.9596710911289
139	147779	14.8	3.65245547679
139	150570	14.9	0.973
139	153361	15	2.6600975275314
139	156152	15.1	5.6239698555189
139	159321	15.2	1.8337649484241
139	162490	15.3	1.7693992595392
139	165659	15.4	0.973
139	168828	15.5	4.3270803451883
139	171997	15.6	0.973
139	175166	15.7	4.1025116234722
139	178335	15.8	3.7771925044229
139	181504	15.9	0.973
139	184673	16	4.2345551705033
139	187842	16.1	2.6685797101846
139	191368	16.2	0.973
139	194894	16.3	3.8715336456318
139	198420	16.4	0.973
139	201991	16.5	3.210610708086
139	205517	16.6	0.973
139	209043	16.7	5.6005484503954
139	212569	16.8	2.5804465393996
139	216095	16.9	2.8299134555825
139	219621	17	1.7971577793347
139	223192	17.1	2.2891668283445
139	227140	17.2	2.2367614080091
139	231088	17.3	0.973
139	235085	17.4	5.1173685315925
139	239082	17.5	2.7640712252967
139	243030	17.6	0.973
139	246978	17.7	0.973
139	250975	17.8	2.3689465947795
139	254972	17.9	2.3338794684634
139	258921	18	5.1760699730227
139	262870	18.1	2.8112431211503
139	267267	18.2	0.973
139	271664	18.3	1.5890671178112
139	276111	18.4	1.7712261984543
139	280558	18.5	2.1926105658547
139	285005	18.6	1.8103287316297
139	289452	18.7	6.3510911346878
139	293899	18.8	0.973
139	298346	18.9	0.973
139	302743	19	2.5849117098941
139	307140	19.1	5.0576678777037
139	312008	19.2	0.973
139	316876	19.3	3.9152523632358
139	321744	19.4	3.853427784819
139	326612	19.5	0.973
139	331480	19.6	0.973
139	336348	19.7	4.5055044817037
139	341216	19.8	2.9873364931383
139	346084	19.9	2.1354429224138
139	350952	20	0.973
139	355873	20.1	3.1973631780532
139	361236	20.2	4.136341312795
138	39514	9.3	0.84472644298803
138	40775	9.4	-0.38926730297971
138	42036	9.5	0.28495422084816
138	43297	9.6	0.031926536303946
138	44558	9.7	0.085509245283895
138	45819	9.8	-0.077884735958644
138	47080	9.9	-0.39596137055195
138	48341	10	0.71493984577245
138	49602	10.1	-0.047084108414133
138	51121	10.2	-0.1469953194959
138	52640	10.3	-0.86379695862997
138	54159	10.4	1.1802627819823
138	55678	10.5	-0.81895120604896
138	57197	10.6	0.29938382827677
138	58716	10.7	0.41692171467004
138	60235	10.8	-1.1163410873152
138	61754	10.9	0.41807852128986
138	63273	11	0.75339203858748
138	64792	11.1	-0.80854387767612
138	66593	11.2	0.071888900827606
138	68394	11.3	0.76334080670495
138	70195	11.4	-1.0882992711617
138	71996	11.5	-0.092216316284617
138	73797	11.6	0.86619950404856
138	75598	11.7	0.23339537363499
138	77399	11.8	0.10398211535067
138	79200	11.9	-1.027645073738
138	81001	12	0.47446776791476
138	82802	12.1	0.40219233010429
138	84909	12.2	-0.30473377248272
138	87016	12.3	-0.17646211842075
138	89123	12.4	-0.19472173571121
138	91230	12.5	-0.12457491050009
138	93337	12.6	0.4865820132196
138	95444	12.7	-0.22577529766131
138	97551	12.8	0.24457955705003
138	99658	12.9	-0.073966736765581
138	101765	13	0.44791589719242
138	103872	13.1	-0.64709813212975
138	106309	13.2	-0.3370056065498
138	108746	13.3	0.67995100251865
138	111183	13.4	-0.57068275695201
138	113620	13.5	-0.098067077575248
138	116057	13.6	0.91986373045946
138	118494	13.7	-1.1127991299843
138	120931	13.8	0.006676019681624
138	123368	13.9	0.88820806990842
138	125805	14	0.32733300745022
138	128242	14.1	-0.090716963564041
138	131033	14.2	-0.42738989440259
138	133824	14.3	-0.14806805709377
138	136615	14.4	-0.48043059005868
138	139406	14.5	0.69198865590153
138	142197	14.6	-0.75390700746794
138	144988	14.7	0.20082592053805
138	147779	14.8	0.38359146611764
138	150570	14.9	-0.46167020229623
138	153361	15	0.1207101977896
138	156152	15.1	0.90346789392644
138	159321	15.2	-0.10171338105575
138	162490	15.3	-0.11852398763876
138	165659	15.4	-0.55678802717011
138	168828	15.5	0.56088172474411
138	171997	15.6	-0.95028586534317
138	175166	15.7	0.5040389910806
138	178335	15.8	0.41499029314144
138	181504	15.9	-0.34569764405022
138	184673	16	0.53527353014797
138	187842	16.1	0.11925519038924
138	191368	16.2	-0.81717473964673
138	194894	16.3	0.44045616465155
138	198420	16.4	-0.53065119588283
138	201991	16.5	0.26604340362828
138	205517	16.6	-0.49963637695182
138	209043	16.7	0.89884900415782
138	212569	16.8	0.096423325990322
138	216095	16.9	0.16196844668594
138	219621	17	-0.11159090863076
138	223192	17.1	0.018892228137712
138	227140	17.2	0.0049738336354466
138	231088	17.3	-1.0792968957219
138	235085	17.4	0.77162566506304
138	239082	17.5	0.14551207812037
138	243030	17.6	-0.62357813904526
138	246978	17.7	-0.37269115825184
138	250975	17.8	0.043769877403967
138	254972	17.9	0.034287239867279
138	258921	18	0.78711207187734
138	262870	18.1	0.15792945879511
138	267267	18.2	-0.4925425882684
138	271664	18.3	-0.16525476002133
138	276111	18.4	-0.11641319047195
138	280558	18.5	-0.0039594157831679
138	285005	18.6	-0.10571651984938
138	289452	18.7	1.0956813820638
138	293899	18.8	-0.45042197455187
138	298346	18.9	-0.5666041264776
138	302743	19	0.10045124094466
138	307140	19.1	0.75400403421373
138	312008	19.2	-0.98859850883018
138	316876	19.3	0.45396392946131
138	321744	19.4	0.43494280844461
138	326612	19.5	-0.47121843479108
138	331480	19.6	-0.52929248970468
138	336348	19.7	0.61085719440598
138	341216	19.8	0.20571463576053
138	346084	19.9	-0.020756140258165
138	350952	20	-0.69881158608476
138	355873	20.1	0.26373474707361
138	361236	20.2	0.51090325945987
137	38253	9.2	15.527464131659
137	39514	9.3	15.611936775958
137	40775	9.4	15.57301004566
137	42036	9.5	15.601505467745
137	43297	9.6	15.604698121375
137	44558	9.7	15.613249045904
137	45819	9.8	15.605460572308
137	47080	9.9	15.565864435253
137	48341	10	15.63735841983
137	49602	10.1	15.632650008989
137	51121	10.2	15.617950477039
137	52640	10.3	15.531570781176
137	54159	10.4	15.649597059374
137	55678	10.5	15.567701938769
137	57197	10.6	15.597640321597
137	58716	10.7	15.639332493064
137	60235	10.8	15.527698384332
137	61754	10.9	15.569506236461
137	63273	11	15.64484544032
137	64792	11.1	15.563991052553
137	66593	11.2	15.571179942635
137	68394	11.3	15.647514023306
137	70195	11.4	15.53868409619
137	71996	11.5	15.529462464561
137	73797	11.6	15.616082414966
137	75598	11.7	15.63942195233
137	77399	11.8	15.649820163865
137	79200	11.9	15.547055656491
137	81001	12	15.594502433282
137	82802	12.1	15.634721666293
137	84909	12.2	15.604248289044
137	87016	12.3	15.586602077202
137	89123	12.4	15.567129903631
137	91230	12.5	15.554672412581
137	93337	12.6	15.603330613903
137	95444	12.7	15.580753084137
137	97551	12.8	15.605211039842
137	99658	12.9	15.597814366166
137	101765	13	15.642605955885
137	103872	13.1	15.577896142672
137	106309	13.2	15.544195582017
137	108746	13.3	15.612190682269
137	111183	13.4	15.555122406574
137	113620	13.5	15.545315698816
137	116057	13.6	15.637302071862
137	118494	13.7	15.526022158863
137	120931	13.8	15.526689760832
137	123368	13.9	15.615510567822
137	125805	14	15.648243868568
137	128242	14.1	15.639172172211
137	131033	14.2	15.596433182771
137	133824	14.3	15.581626377061
137	136615	14.4	15.533583318056
137	139406	14.5	15.602782183646
137	142197	14.6	15.527391482899
137	144988	14.7	15.547474074953
137	147779	14.8	15.585833221565
137	150570	14.9	15.539666201335
137	153361	15	15.551737221114
137	156152	15.1	15.642084010507
137	159321	15.2	15.631912672401
137	162490	15.3	15.620060273637
137	165659	15.4	15.56438147092
137	168828	15.5	15.620469643394
137	171997	15.6	15.52544105686
137	175166	15.7	15.575844955968
137	178335	15.8	15.617343985282
137	181504	15.9	15.582774220877
137	184673	16	15.636301573892
137	187842	16.1	15.648227092931
137	191368	16.2	15.566509618966
137	194894	16.3	15.610555235432
137	198420	16.4	15.557490115843
137	201991	16.5	15.584094456206
137	205517	16.6	15.534130818511
137	209043	16.7	15.624015718927
137	212569	16.8	15.633658051526
137	216095	16.9	15.649854896194
137	219621	17	15.638695805331
137	223192	17.1	15.640585028145
137	227140	17.2	15.641082411509
137	231088	17.3	15.533152721936
137	235085	17.4	15.610315288443
137	239082	17.5	15.624866496255
137	243030	17.6	15.56250868235
137	246978	17.7	15.525239566525
137	250975	17.8	15.529616554265
137	254972	17.9	15.533045278252
137	258921	18	15.61175648544
137	262870	18.1	15.627549431319
137	267267	18.2	15.578295172493
137	271664	18.3	15.56176969649
137	276111	18.4	15.550128377443
137	280558	18.5	15.549732435865
137	285005	18.6	15.53916078388
137	289452	18.7	15.648728922086
137	293899	18.8	15.603686724631
137	298346	18.9	15.547026311983
137	302743	19	15.557071436078
137	307140	19.1	15.632471839499
137	312008	19.2	15.533611988616
137	316876	19.3	15.579008381562
137	321744	19.4	15.622502662407
137	326612	19.5	15.575380818928
137	331480	19.6	15.522451569957
137	336348	19.7	15.583537289398
137	341216	19.8	15.604108752974
137	346084	19.9	15.602033138948
137	350952	20	15.53215198034
137	355873	20.1	15.558525455047
137	361236	20.2	15.609615780993
136	36992	9.1	177.20127428924
136	38253	9.2	177.20127428924
136	39514	9.3	178.33425376081
136	40775	9.4	179.47339687708
136	42036	9.5	180.60969965922
136	43297	9.6	181.74808164295
136	44558	9.7	182.88669658237
136	45819	9.8	184.02593544994
136	47080	9.9	185.16460602248
136	48341	10	186.30038741685
136	49602	10.1	187.44138545291
136	51121	10.2	188.58203993431
136	52640	10.3	189.66742454326
136	54159	10.4	190.74545045352
136	55678	10.5	191.8316684126
136	57197	10.6	192.91220213902
136	58716	10.7	193.99481384923
136	60235	10.8	195.08031935825
136	61754	10.9	196.15807649054
136	63273	11	197.23873545089
136	64792	11.1	198.32462360633
136	66593	11.2	199.40489976501
136	68394	11.3	200.45703662259
136	70195	11.4	201.48394174753
136	71996	11.5	202.50370465103
136	73797	11.6	203.52286236315
136	75598	11.7	204.54770471443
136	77399	11.8	205.57407877806
136	79200	11.9	206.60113524892
136	81001	12	207.62144755588
136	82802	12.1	208.64487366981
136	84909	12.2	209.67093926605
136	87016	12.3	210.69500497482
136	89123	12.4	211.71791260919
136	91230	12.5	212.71053690272
136	93337	12.6	213.6896192213
136	95444	12.7	214.67176430991
136	97551	12.8	215.6524882654
136	99658	12.9	216.63475171664
136	101765	13	217.61654958735
136	103872	13.1	218.60116684586
136	106309	13.2	219.58171097237
136	108746	13.3	220.56013383125
136	111183	13.4	221.54283661315
136	113620	13.5	222.51685996618
136	116057	13.6	223.44652533924
136	118494	13.7	224.38169182578
136	120931	13.8	225.31020337627
136	123368	13.9	226.23875485174
136	125805	14	227.17261812855
136	128242	14.1	228.10843897359
136	131033	14.2	229.04371729881
136	133824	14.3	229.97643967989
136	136615	14.4	230.90827656113
136	139406	14.5	231.83724029593
136	142197	14.6	232.77034236992
136	144988	14.7	233.69893581088
136	147779	14.8	234.60734240023
136	150570	14.9	235.51280528279
136	153361	15	236.41558608074
136	156152	15.1	237.31906814761
136	159321	15.2	238.22779893383
136	162490	15.3	239.13593881361
136	165659	15.4	240.04339012532
136	168828	15.5	240.94760676305
136	171997	15.6	241.85508185719
136	175166	15.7	242.75703624182
136	178335	15.8	243.66191885358
136	181504	15.9	244.56921236184
136	184673	16	245.47449753098
136	187842	16.1	246.38050094175
136	191368	16.2	247.22349332428
136	194894	16.3	248.06208346956
136	198420	16.4	248.90304641522
136	201991	16.5	249.74115066697
136	205517	16.6	250.58068813259
136	209043	16.7	251.41753398557
136	212569	16.8	252.25922206674
136	216095	16.9	253.10142959416
136	219621	17	253.94450966877
136	223192	17.1	254.7869885872
136	227140	17.2	255.63050898995
136	231088	17.3	256.47922754097
136	235085	17.4	257.32208959643
136	239082	17.5	258.16913865761
136	243030	17.6	259.01697729843
136	246978	17.7	259.86143227102
136	250975	17.8	260.70386494176
136	254972	17.9	261.54653511721
136	258921	18	262.38939134254
136	262870	18.1	263.23651860616
136	267267	18.2	264.08450282876
136	271664	18.3	264.92138306747
136	276111	18.4	265.74601120976
136	280558	18.5	266.57002247109
136	285005	18.6	267.39401275123
136	289452	18.7	268.21744283275
136	293899	18.8	269.04667900009
136	298346	18.9	269.87352835254
136	302743	19	270.69737523344
136	307140	19.1	271.5217544119
136	312008	19.2	272.35012910602
136	316876	19.3	273.16938085445
136	321744	19.4	273.963869896
136	326612	19.5	274.76057703312
136	331480	19.6	275.55488107837
136	336348	19.7	276.34648586914
136	341216	19.8	277.14120587325
136	346084	19.9	277.93697496867
136	350952	20	278.73263821316
136	355873	20.1	279.52473769971
136	361236	20.2	280.3181821651
135	36992	9.1	159.45975440234
135	38253	9.2	159.45975440234
135	39514	9.3	160.52833451202
135	40775	9.4	161.60272792042
135	42036	9.5	162.67444244131
135	43297	9.6	163.7481179805
135	44558	9.7	164.822013234
135	45819	9.8	165.89649695113
135	47080	9.9	166.97044467553
135	48341	10	168.04166744471
135	49602	10.1	169.11781033794
135	51121	10.2	170.1936292044
135	52640	10.3	171.32307547068
135	54159	10.4	172.44764170658
135	55678	10.5	173.58075365684
135	57197	10.6	174.70793597585
135	58716	10.7	175.83728598897
135	60235	10.8	176.96965473143
135	61754	10.9	178.09394058573
135	63273	11	179.22125354524
135	64792	11.1	180.35402145365
135	66593	11.2	181.48093508526
135	68394	11.3	182.63445409156
135	70195	11.4	183.82130798492
135	71996	11.5	184.99990719817
135	73797	11.6	186.17780695658
135	75598	11.7	187.36227678262
135	77399	11.8	188.54851689759
135	79200	11.9	189.73554571023
135	81001	12	190.91477990095
135	82802	12.1	192.09761289924
135	84909	12.2	193.28349650053
135	87016	12.3	194.46706871572
135	89123	12.4	195.64930247707
135	91230	12.5	196.85428495439
135	93337	12.6	198.06895012152
135	95444	12.7	199.28741501009
135	97551	12.8	200.5041168182
135	99658	12.9	201.72272854932
135	101765	13	202.94076267382
135	103872	13.1	204.16229457586
135	106309	13.2	205.37877328526
135	108746	13.3	206.59262031616
135	111183	13.4	207.81177708792
135	113620	13.5	209.03041442218
135	116057	13.6	210.28213664785
135	118494	13.7	211.54126569561
135	120931	13.8	212.79143438881
135	123368	13.9	214.0416568379
135	125805	14	215.29903121496
135	128242	14.1	216.55904130563
135	131033	14.2	217.81832093548
135	133824	14.3	219.07415918505
135	136615	14.4	220.32880517785
135	139406	14.5	221.57958270211
135	142197	14.6	222.8359321787
135	144988	14.7	224.08621113106
135	147779	14.8	225.35364547908
135	150570	14.9	226.62797375404
135	153361	15	227.89852732293
135	156152	15.1	229.17006784207
135	159321	15.2	230.44899529179
135	162490	15.3	231.72709111298
135	165659	15.4	233.00421785881
135	168828	15.5	234.27679219659
135	171997	15.6	235.55395241329
135	175166	15.7	236.82334290649
135	178335	15.8	238.09685452128
135	181504	15.9	239.37375917805
135	184673	16	240.64783734312
135	187842	16.1	241.92790147902
135	191368	16.2	243.251814106
135	194894	16.3	244.56881305548
135	198420	16.4	245.8895384685
135	201991	16.5	247.20577432616
135	205517	16.6	248.52426103447
135	209043	16.7	249.83852058717
135	212569	16.8	251.16038481956
135	216095	16.9	252.48306483804
135	219621	17	253.80711518473
135	223192	17.1	255.13022142055
135	227140	17.2	256.45288608139
135	231088	17.3	257.77228316733
135	235085	17.4	259.0825758886
135	239082	17.5	260.3993776265
135	243030	17.6	261.71740682556
135	246978	17.7	263.03017585683
135	250975	17.8	264.33980106713
135	254972	17.9	265.64979549643
135	258921	18	266.96007915434
135	262870	18.1	268.27700246382
135	267267	18.2	269.59525798076
135	271664	18.3	270.91469325902
135	276111	18.4	272.23991919121
135	280558	18.5	273.56415375942
135	285005	18.6	274.88835460962
135	289452	18.7	276.21165518769
135	293899	18.8	277.54428648721
135	298346	18.9	278.87308203479
135	302743	19	280.19705243398
135	307140	19.1	281.52187826665
135	312008	19.2	282.85312512803
135	316876	19.3	284.17830803376
135	321744	19.4	285.52382764284
135	326612	19.5	286.87310374311
135	331480	19.6	288.21831004876
135	336348	19.7	289.55894498885
135	341216	19.8	290.90485574826
135	346084	19.9	292.25254321303
135	350952	20	293.60005141225
135	355873	20.1	294.94152415229
135	361236	20.2	296.28527470273
