version 2
run General-6-20161208-15:07:08-754
attr configname General
attr datetime 20161208-15:07:08
attr experiment General
attr inifile omnetpp.ini
attr iterationvars ""
attr iterationvars2 $repetition=6
attr measurement ""
attr network com.liborio.locvanet.LocScenario
attr processid 754
attr repetition 6
attr replication #6
attr resultdir results
attr runnumber 6
attr seedset 6
param **.coreDebug false
param **.debug false
param *.**.nic.mac1609_4.bitrate 18Mbps
param *.**.nic.mac1609_4.txPower 20mW
param *.**.nic.mac1609_4.useServiceChannel false
param *.**.nic.phy80211p.analogueModels "xmldoc(\"config_trgi.xml\")"
param *.**.nic.phy80211p.decider "xmldoc(\"config_trgi.xml\")"
param *.**.nic.phy80211p.sensitivity -89dBm
param *.**.nic.phy80211p.thermalNoise -110dBm
param *.**.nic.phy80211p.usePropagationDelay true
param *.**.nic.phy80211p.useThermalNoise true
param *.annotations.draw false
param *.connectionManager.alpha 2.0
param *.connectionManager.carrierFrequency "5.890e9 Hz"
param *.connectionManager.pMax 20mW
param *.connectionManager.sat -89dBm
param *.connectionManager.sendDirect true
param *.manager.autoShutdown true
param *.manager.host "\"localhost\""
param *.manager.launchConfig "xmldoc(\"tunnel.launchd.xml\")"
param *.manager.margin 25
param *.manager.moduleDisplayString "\"\""
param *.manager.moduleName "\"node\""
param *.manager.moduleType "\"org.car2x.veins.nodes.Car\""
param *.manager.port 9999
param *.manager.updateInterval 0.1s
param *.node[*].appl.beaconInterval 0.1s
param *.node[*].appl.beaconPriority 3
param *.node[*].appl.dataOnSch false
param *.node[*].appl.dataPriority 2
param *.node[*].appl.debug false
param *.node[*].appl.headerLength "256 bit"
param *.node[*].appl.maxOffset 0.005s
param *.node[*].appl.sendBeacons true
param *.node[*].appl.sendData true
param *.node[*].applType "\"LocAppCom\""
param *.node[*].mobilityType "\"TraCIMobility\""
param *.node[*].mobilityType.debug true
param *.node[*].veinsmobility.x 0
param *.node[*].veinsmobility.y 0
param *.node[*].veinsmobility.z 1.895
param *.node[*].veinsmobilityType "\"org.car2x.veins.modules.mobility.traci.TraCIMobility\""
param *.node[*].veinsmobilityType.debug true
param *.playgroundSizeX 5000m
param *.playgroundSizeY 5000m
param *.playgroundSizeZ 50m
param *.world.use2D false
param *.world.useTorus false

vector 2  LocScenario.node[0].veinsmobility  posx  ETV
vector 3  LocScenario.node[0].veinsmobility  posy  ETV
vector 4  LocScenario.node[0].veinsmobility  speed  ETV
vector 5  LocScenario.node[0].veinsmobility  acceleration  ETV
vector 6  LocScenario.node[0].veinsmobility  co2emission  ETV
vector 9  LocScenario.node[1].veinsmobility  posx  ETV
vector 10  LocScenario.node[1].veinsmobility  posy  ETV
vector 11  LocScenario.node[1].veinsmobility  speed  ETV
vector 12  LocScenario.node[1].veinsmobility  acceleration  ETV
vector 13  LocScenario.node[1].veinsmobility  co2emission  ETV
vector 16  LocScenario.node[2].veinsmobility  posx  ETV
vector 17  LocScenario.node[2].veinsmobility  posy  ETV
vector 18  LocScenario.node[2].veinsmobility  speed  ETV
vector 19  LocScenario.node[2].veinsmobility  acceleration  ETV
vector 20  LocScenario.node[2].veinsmobility  co2emission  ETV
vector 23  LocScenario.node[3].veinsmobility  posx  ETV
vector 24  LocScenario.node[3].veinsmobility  posy  ETV
vector 25  LocScenario.node[3].veinsmobility  speed  ETV
vector 26  LocScenario.node[3].veinsmobility  acceleration  ETV
vector 27  LocScenario.node[3].veinsmobility  co2emission  ETV
vector 30  LocScenario.node[4].veinsmobility  posx  ETV
vector 31  LocScenario.node[4].veinsmobility  posy  ETV
vector 32  LocScenario.node[4].veinsmobility  speed  ETV
vector 33  LocScenario.node[4].veinsmobility  acceleration  ETV
vector 34  LocScenario.node[4].veinsmobility  co2emission  ETV
vector 37  LocScenario.node[5].veinsmobility  posx  ETV
vector 38  LocScenario.node[5].veinsmobility  posy  ETV
vector 39  LocScenario.node[5].veinsmobility  speed  ETV
vector 40  LocScenario.node[5].veinsmobility  acceleration  ETV
vector 41  LocScenario.node[5].veinsmobility  co2emission  ETV
vector 44  LocScenario.node[6].veinsmobility  posx  ETV
vector 45  LocScenario.node[6].veinsmobility  posy  ETV
vector 46  LocScenario.node[6].veinsmobility  speed  ETV
vector 47  LocScenario.node[6].veinsmobility  acceleration  ETV
vector 48  LocScenario.node[6].veinsmobility  co2emission  ETV
vector 51  LocScenario.node[7].veinsmobility  posx  ETV
vector 52  LocScenario.node[7].veinsmobility  posy  ETV
vector 53  LocScenario.node[7].veinsmobility  speed  ETV
vector 54  LocScenario.node[7].veinsmobility  acceleration  ETV
vector 55  LocScenario.node[7].veinsmobility  co2emission  ETV
vector 58  LocScenario.node[8].veinsmobility  posx  ETV
vector 59  LocScenario.node[8].veinsmobility  posy  ETV
vector 60  LocScenario.node[8].veinsmobility  speed  ETV
vector 61  LocScenario.node[8].veinsmobility  acceleration  ETV
vector 62  LocScenario.node[8].veinsmobility  co2emission  ETV
vector 65  LocScenario.node[9].veinsmobility  posx  ETV
vector 66  LocScenario.node[9].veinsmobility  posy  ETV
vector 67  LocScenario.node[9].veinsmobility  speed  ETV
vector 68  LocScenario.node[9].veinsmobility  acceleration  ETV
vector 69  LocScenario.node[9].veinsmobility  co2emission  ETV
6	22	0.3	6.6976066467478
6	32	0.4	3.6002471962215
6	42	0.5	0.973
6	52	0.6	7.6013432035417
6	62	0.7	2.9742910112746
6	72	0.8	0.76006544438368
6	82	0.9	4.4840033790276
6	92	1	0.973
6	102	1.1	5.2694298803964
6	133	1.2	2.7360756452054
6	164	1.3	3.3124471767032
6	195	1.4	3.1218418486495
6	226	1.5	0.66915969811584
6	257	1.6	3.2576402688303
6	288	1.7	5.1201336772303
6	319	1.8	3.7730988244023
6	350	1.9	3.3599800911688
6	381	2	0.973
6	412	2.1	1.624241521418
6	476	2.2	4.2980856745022
6	540	2.3	1.9051273367991
6	604	2.4	3.7599422261974
6	668	2.5	2.0115483999334
6	732	2.6	3.9860582020449
6	796	2.7	3.2962560780965
6	860	2.8	5.7046999334251
6	924	2.9	0.82267742613424
6	988	3	0.973
6	1052	3.1	1.7563044780221
6	1161	3.2	4.8456341140845
6	1270	3.3	2.5293262804346
6	1379	3.4	5.1245446316883
6	1488	3.5	2.5060968079452
6	1597	3.6	0.80021055508478
6	1706	3.7	1.150748640305
6	1815	3.8	6.6961610347039
6	1924	3.9	4.6668567018163
6	2033	4	0.973
6	2142	4.1	5.8914465678901
6	2308	4.2	2.5055778649184
6	2474	4.3	2.4417499283253
6	2640	4.4	1.44331939725
6	2806	4.5	2.4698946905895
6	2972	4.6	3.1481606076067
6	3138	4.7	0.75939289451579
6	3304	4.8	4.4694769037697
6	3470	4.9	4.6971692884091
6	3636	5	0.973
6	3802	5.1	4.9399070368651
6	4037	5.2	4.9405785764632
6	4272	5.3	3.9997684377522
6	4507	5.4	0.973
6	4742	5.5	3.2779243894729
6	4977	5.6	5.2378788941243
6	5212	5.7	2.1289134111466
6	5447	5.8	1.3687303331563
6	5682	5.9	4.5284267388283
6	5917	6	2.8841399726045
6	6152	6.1	0.973
6	6468	6.2	3.5416404716057
6	6784	6.3	1.3016305540491
6	7100	6.4	8.4794349177473
6	7416	6.5	0.74366431261992
6	7732	6.6	3.0988371179254
6	8048	6.7	0.973
6	8364	6.8	7.414094266729
6	8680	6.9	0.973
6	8996	7	1.9281457659704
6	9312	7.1	3.2415759277565
6	9721	7.2	1.5754468719204
6	10130	7.3	5.1361378147661
6	10539	7.4	5.4271960077196
6	10948	7.5	2.475438928953
6	11357	7.6	2.8810346445569
6	11766	7.7	0.973
6	12175	7.8	8.0207156707816
6	12584	7.9	0.973
6	12993	8	3.222036538188
6	13402	8.1	5.7692421324935
6	13916	8.2	0.973
6	14430	8.3	2.784470927016
6	14944	8.4	4.8703747420598
6	15458	8.5	0.973
6	15972	8.6	4.9162472139178
6	16486	8.7	0.973
6	17000	8.8	2.9962661524252
6	17514	8.9	5.7335706264773
6	18028	9	1.9274449073745
6	18542	9.1	1.4111533188846
6	19173	9.2	4.0516847916401
6	19804	9.3	6.0407803230361
6	20435	9.4	2.921922145849
6	21066	9.5	1.892388165642
6	21697	9.6	0.973
6	22328	9.7	5.2675819662756
6	22959	9.8	0.973
6	23590	9.9	6.3791135259824
6	24221	10	3.513417439365
6	24852	10.1	0.973
6	25483	10.2	2.7825995152221
6	26114	10.3	7.9294588430337
6	26745	10.4	0.973
6	27376	10.5	2.1331964741657
6	28007	10.6	7.7509949951538
6	28638	10.7	0.973
6	29269	10.8	5.6592975101745
6	29900	10.9	1.4963773622259
6	30531	11	0.973
6	31162	11.1	3.6913116101116
6	31793	11.2	7.4924004644876
6	32424	11.3	0.973
6	33055	11.4	3.0461349521093
6	33686	11.5	6.1648537896043
6	34317	11.6	0.973
6	34948	11.7	5.2320782220246
6	35579	11.8	2.1594309156447
6	36210	11.9	4.0481780663655
6	36841	12	1.8898317335456
6	37472	12.1	4.3336125459812
6	38103	12.2	0.973
6	38734	12.3	8.5731039672682
6	39365	12.4	0.973
6	39996	12.5	3.6505765179571
6	40627	12.6	1.1465004706534
6	41258	12.7	8.8768788098519
6	41889	12.8	0.973
6	42520	12.9	2.5578567769292
6	43151	13	3.2311568930416
6	43782	13.1	4.6655754225214
6	44413	13.2	5.9796351164797
6	45044	13.3	0.973
6	45675	13.4	8.8357363668464
6	46306	13.5	1.5838584353932
6	46937	13.6	1.4197331414103
6	47568	13.7	2.6177342107139
6	48199	13.8	0.973
6	48830	13.9	3.7250105128501
6	49461	14	4.6057257767577
6	50092	14.1	3.7111494559178
6	50723	14.2	4.5564675746048
6	51354	14.3	0.973
6	51985	14.4	1.0379089820908
6	52616	14.5	7.1986816587081
6	53247	14.6	0.67552886882157
6	53878	14.7	3.8115421299822
6	54509	14.8	0.973
6	55140	14.9	3.7104251913218
6	55771	15	6.3347165535425
6	56402	15.1	1.5416633855885
6	57033	15.2	0.973
6	57664	15.3	4.0905171065045
6	58295	15.4	2.4132236963199
6	58926	15.5	5.1030925232593
6	59557	15.6	3.7108783796016
6	60188	15.7	2.1619120678011
6	60819	15.8	2.4409985682395
6	61450	15.9	2.9621057124301
6	62081	16	0.57899005132573
6	62712	16.1	6.5291486675341
6	63343	16.2	1.1522869854267
6	63974	16.3	0.92143018303781
6	64605	16.4	5.814099599404
6	65236	16.5	2.7432971770235
6	65867	16.6	0.89009693434908
6	66498	16.7	1.0355652977839
6	67129	16.8	7.8697443385382
6	67760	16.9	2.3415457155754
6	68391	17	0.973
6	69022	17.1	5.3484416342784
6	69653	17.2	0.973
6	70284	17.3	4.4781790942651
6	70915	17.4	1.7174312361036
6	71546	17.5	2.9727611856382
6	72177	17.6	3.517499883344
6	72808	17.7	5.1591332202001
6	73439	17.8	3.0502179421617
6	74070	17.9	3.4080864987304
6	74701	18	0.973
6	75332	18.1	5.1305964193929
6	75963	18.2	0.973
6	76594	18.3	5.058854900406
6	77225	18.4	3.0560714767487
6	77856	18.5	0.973
6	78487	18.6	4.6002955600106
6	79118	18.7	4.4303277811415
6	79749	18.8	0.973
6	80380	18.9	5.725068501082
6	81011	19	3.4857191870286
6	81642	19.1	0.973
6	82273	19.2	4.2802926793555
6	82904	19.3	0.973
6	83535	19.4	8.8457953385245
6	84166	19.5	1.6058310546356
6	84797	19.6	0.973
5	22	0.3	0.80014515328219
5	32	0.4	0.15934547043869
5	42	0.5	-0.79536958704701
5	52	0.6	0.9840668728808
5	62	0.7	0.029325375100591
5	72	0.8	-0.42693661076481
5	82	0.9	0.34118854594414
5	92	1	-1.1405837839003
5	102	1.1	0.5069697730476
5	133	1.2	-0.017448011878898
5	164	1.3	0.10150029414799
5	195	1.4	0.061832887795745
5	226	1.5	-0.44508955127093
5	257	1.6	0.091255214274852
5	288	1.7	0.4745486055268
5	319	1.8	0.19521031877957
5	350	1.9	0.10945830459242
5	381	2	-0.73932771789842
5	412	2.1	-0.24682666698936
5	476	2.2	0.3063989462331
5	540	2.3	-0.18883219265845
5	604	2.4	0.19490218162538
5	668	2.5	-0.1668366505066
5	732	2.6	0.24140213520731
5	796	2.7	0.09820167960136
5	860	2.8	0.59292426945174
5	924	2.9	-0.4139395500766
5	988	3	-0.54903639382683
5	1052	3.1	-0.21920007974842
5	1161	3.2	0.41976741242689
5	1270	3.3	-0.059829531679867
5	1379	3.4	0.47517908762675
5	1488	3.5	-0.065861558238964
5	1597	3.6	-0.4180774788605
5	1706	3.7	-0.34490206826014
5	1815	3.8	0.80024284592366
5	1924	3.9	0.37875483785754
5	2033	4	-0.89494913548695
5	2142	4.1	0.6331280604936
5	2308	4.2	-0.066230656625699
5	2474	4.3	-0.079192048916603
5	2640	4.4	-0.28509134449994
5	2806	4.5	-0.072321788081915
5	2972	4.6	0.067919369181624
5	3138	4.7	-0.42619674622546
5	3304	4.8	0.3419316322077
5	3470	4.9	0.38706912305205
5	3636	5	-0.70110224499366
5	3802	5.1	0.43869440455456
5	4037	5.2	0.43643910894168
5	4272	5.3	0.24101176206024
5	4507	5.4	-0.77192614048254
5	4742	5.5	0.094634967599987
5	4977	5.6	0.49749756434469
5	5212	5.7	-0.14414441292175
5	5447	5.8	-0.30069553372449
5	5682	5.9	0.35146458845119
5	5917	6	0.011714886198746
5	6152	6.1	-0.67069296552798
5	6468	6.2	0.14965462277175
5	6784	6.3	-0.31376512225251
5	7100	6.4	1.1646333126351
5	7416	6.5	-0.43036555985456
5	7732	6.6	0.056227688537902
5	8048	6.7	-0.78920744508505
5	8364	6.8	0.94664325485937
5	8680	6.9	-0.68909558330194
5	8996	7	-0.18397250443233
5	9312	7.1	0.088067791890367
5	9721	7.2	-0.25677258688958
5	10130	7.3	0.4795062917983
5	10539	7.4	0.5365579568781
5	10948	7.5	-0.072761139366762
5	11357	7.6	0.010987161239591
5	11766	7.7	-0.82577664544804
5	12175	7.8	1.0705354146892
5	12584	7.9	-0.63552927775309
5	12993	8	0.082569822412921
5	13402	8.1	0.60569925969467
5	13916	8.2	-0.55992087668276
5	14430	8.3	-0.0080765580292663
5	14944	8.4	0.4210952700814
5	15458	8.5	-0.84858755411112
5	15972	8.6	0.43283193197567
5	16486	8.7	-0.59718311065808
5	17000	8.8	0.037663172767495
5	17514	8.9	0.60161762179341
5	18028	9	-0.18501669145188
5	18542	9.1	-0.29134183840362
5	19173	9.2	0.25483069203329
5	19804	9.3	0.66223276383244
5	20435	9.4	0.018629188463066
5	21066	9.5	-0.19333027654792
5	21697	9.6	-0.56724028685128
5	22328	9.7	0.50407467491457
5	22959	9.8	-0.7476248798892
5	23590	9.9	0.73379418898842
5	24221	10	0.14118374919054
5	24852	10.1	-0.88958726751155
5	25483	10.2	-0.0067700096406043
5	26114	10.3	1.0515581595479
5	26745	10.4	-1.0532920410158
5	27376	10.5	-0.14107056267093
5	28007	10.6	1.016231297981
5	28638	10.7	-0.57125684253407
5	29269	10.8	0.58426633549391
5	29900	10.9	-0.27468659798615
5	30531	11	-0.65873084953058
5	31162	11.1	0.18111130916516
5	31793	11.2	0.96104356287977
5	32424	11.3	-1.0363180699525
5	33055	11.4	0.047504597296921
5	33686	11.5	0.68925624818075
5	34317	11.6	-0.95848421901461
5	34948	11.7	0.4992437869776
5	35579	11.8	-0.13652453883552
5	36210	11.9	0.25360740874895
5	36841	12	-0.19252041850706
5	37472	12.1	0.31208473127336
5	38103	12.2	-0.72494692516049
5	38734	12.3	1.1845118272584
5	39365	12.4	-1.0268723596586
5	39996	12.5	0.17248593780678
5	40627	12.6	-0.34579555401578
5	41258	12.7	1.2467415628256
5	41889	12.8	-1.0706351486035
5	42520	12.9	-0.053240686515359
5	43151	13	0.086095962603601
5	43782	13.1	0.38151095388457
5	44413	13.2	0.64918996852356
5	45044	13.3	-1.2190178889083
5	45675	13.4	1.23814136656
5	46306	13.5	-0.25705115948803
5	46937	13.6	-0.29040603891481
5	47568	13.7	-0.042510330653762
5	48199	13.8	-0.54691481157207
5	48830	13.9	0.18806004640648
5	49461	14	0.36867221836001
5	50092	14.1	0.18285916869061
5	50723	14.2	0.3557448512176
5	51354	14.3	-0.72747757104224
5	51985	14.4	-0.36851060367191
5	52616	14.5	0.90232815179043
5	53247	14.6	-0.44417470721527
5	53878	14.7	0.20394396446644
5	54509	14.8	-0.51482149444055
5	55140	14.9	0.18443338139917
5	55771	15	0.72287363971117
5	56402	15.1	-0.26558361207137
5	57033	15.2	-0.88004335425794
5	57664	15.3	0.26387707137037
5	58295	15.4	-0.083493982651284
5	58926	15.5	0.47153202351183
5	59557	15.6	0.18278874326498
5	60188	15.7	-0.13695611972359
5	60819	15.8	-0.079011763725454
5	61450	15.9	0.028695444785996
5	62081	16	-0.46379283030983
5	62712	16.1	0.76439641232138
5	63343	16.2	-0.34559341382703
5	63974	16.3	-0.39282990912906
5	64605	16.4	0.61748168072665
5	65236	16.5	-0.017088676732975
5	65867	16.6	-0.399587952625
5	66498	16.7	-0.36892458463555
5	67129	16.8	1.0401492336299
5	67760	16.9	-0.10060346045066
5	68391	17	-0.47295177415943
5	69022	17.1	0.52006089936476
5	69653	17.2	-0.98128402992153
5	70284	17.3	0.34358302403707
5	70915	17.4	-0.2277159509249
5	71546	17.5	0.032464832114059
5	72177	17.6	0.14481517686509
5	72808	17.7	0.48215162428097
5	73439	17.8	0.046140154125141
5	74070	17.9	0.11961677717046
5	74701	18	-0.70982037531213
5	75332	18.1	0.4766368545592
5	75963	18.2	-0.53565443456172
5	76594	18.3	0.46221689051016
5	77225	18.4	0.047842630441295
5	77856	18.5	-0.61444650478663
5	78487	18.6	0.36839868174866
5	79118	18.7	0.33156701105181
5	79749	18.8	-0.53508714262861
5	80380	18.9	0.59875990764706
5	81011	19	0.13554448846261
5	81642	19.1	-0.48844986592886
5	82273	19.2	0.30050405119546
5	82904	19.3	-0.84835372243543
5	83535	19.4	1.2403172625928
5	84166	19.5	-0.25250089298936
5	84797	19.6	-0.60937138842419
4	12	0.2	19.996828110095
4	22	0.3	20.076842625423
4	32	0.4	20.092777172467
4	42	0.5	20.013240213762
4	52	0.6	20.11164690105
4	62	0.7	20.11457943856
4	72	0.8	20.071885777484
4	82	0.9	20.106004632078
4	92	1	19.991946253688
4	102	1.1	20.042643230993
4	133	1.2	20.040898429805
4	164	1.3	20.05104845922
4	195	1.4	20.057231747999
4	226	1.5	20.012722792872
4	257	1.6	20.0218483143
4	288	1.7	20.069303174852
4	319	1.8	20.08882420673
4	350	1.9	20.09977003719
4	381	2	20.0258372654
4	412	2.1	20.001154598701
4	476	2.2	20.031794493324
4	540	2.3	20.012911274058
4	604	2.4	20.032401492221
4	668	2.5	20.01571782717
4	732	2.6	20.039858040691
4	796	2.7	20.049678208651
4	860	2.8	20.108970635596
4	924	2.9	20.067576680589
4	988	3	20.012673041206
4	1052	3.1	19.990753033231
4	1161	3.2	20.032729774474
4	1270	3.3	20.026746821306
4	1379	3.4	20.074264730068
4	1488	3.5	20.067678574244
4	1597	3.6	20.025870826358
4	1706	3.7	19.991380619532
4	1815	3.8	20.071404904125
4	1924	3.9	20.109280387911
4	2033	4	20.019785474362
4	2142	4.1	20.083098280411
4	2308	4.2	20.076475214749
4	2474	4.3	20.068556009857
4	2640	4.4	20.040046875407
4	2806	4.5	20.032814696599
4	2972	4.6	20.039606633517
4	3138	4.7	19.996986958894
4	3304	4.8	20.031180122115
4	3470	4.9	20.06988703442
4	3636	5	19.999776809921
4	3802	5.1	20.043646250376
4	4037	5.2	20.087290161271
4	4272	5.3	20.111391337477
4	4507	5.4	20.034198723428
4	4742	5.5	20.043662220188
4	4977	5.6	20.093411976623
4	5212	5.7	20.078997535331
4	5447	5.8	20.048927981958
4	5682	5.9	20.084074440803
4	5917	6	20.085245929423
4	6152	6.1	20.01817663287
4	6468	6.2	20.033142095148
4	6784	6.3	20.001765582922
4	7100	6.4	20.118228914186
4	7416	6.5	20.0751923582
4	7732	6.6	20.080815127054
4	8048	6.7	20.001894382546
4	8364	6.8	20.096558708032
4	8680	6.9	20.027649149701
4	8996	7	20.009251899258
4	9312	7.1	20.018058678447
4	9721	7.2	19.992381419758
4	10130	7.3	20.040332048938
4	10539	7.4	20.093987844626
4	10948	7.5	20.086711730689
4	11357	7.6	20.087810446813
4	11766	7.7	20.005232782268
4	12175	7.8	20.112286323737
4	12584	7.9	20.048733395962
4	12993	8	20.056990378203
4	13402	8.1	20.117560304173
4	13916	8.2	20.061568216505
4	14430	8.3	20.060760560702
4	14944	8.4	20.10287008771
4	15458	8.5	20.018011332299
4	15972	8.6	20.061294525496
4	16486	8.7	20.00157621443
4	17000	8.8	20.005342531707
4	17514	8.9	20.065504293886
4	18028	9	20.047002624741
4	18542	9.1	20.017868440901
4	19173	9.2	20.043351510104
4	19804	9.3	20.109574786488
4	20435	9.4	20.111437705334
4	21066	9.5	20.092104677679
4	21697	9.6	20.035380648994
4	22328	9.7	20.085788116485
4	22959	9.8	20.011025628496
4	23590	9.9	20.084405047395
4	24221	10	20.098523422314
4	24852	10.1	20.009564695563
4	25483	10.2	20.008887694599
4	26114	10.3	20.114043510554
4	26745	10.4	20.008714306452
4	27376	10.5	19.994607250185
4	28007	10.6	20.096230379983
4	28638	10.7	20.03910469573
4	29269	10.8	20.097531329279
4	29900	10.9	20.070062669481
4	30531	11	20.004189584528
4	31162	11.1	20.022300715444
4	31793	11.2	20.118405071732
4	32424	11.3	20.014773264737
4	33055	11.4	20.019523724467
4	33686	11.5	20.088449349285
4	34317	11.6	19.992600927383
4	34948	11.7	20.042525306081
4	35579	11.8	20.028872852197
4	36210	11.9	20.054233593072
4	36841	12	20.034981551222
4	37472	12.1	20.066190024349
4	38103	12.2	19.993695331833
4	38734	12.3	20.112146514559
4	39365	12.4	20.009459278593
4	39996	12.5	20.026707872374
4	40627	12.6	19.992128316972
4	41258	12.7	20.116802473255
4	41889	12.8	20.009738958394
4	42520	12.9	20.004414889743
4	43151	13	20.013024486003
4	43782	13.1	20.051175581391
4	44413	13.2	20.116094578244
4	45044	13.3	19.994192789353
4	45675	13.4	20.118006926009
4	46306	13.5	20.09230181006
4	46937	13.6	20.063261206169
4	47568	13.7	20.059010173103
4	48199	13.8	20.004318691946
4	48830	13.9	20.023124696587
4	49461	14	20.059991918423
4	50092	14.1	20.078277835292
4	50723	14.2	20.113852320414
4	51354	14.3	20.041104563309
4	51985	14.4	20.004253502942
4	52616	14.5	20.094486318121
4	53247	14.6	20.0500688474
4	53878	14.7	20.070463243846
4	54509	14.8	20.018981094402
4	55140	14.9	20.037424432542
4	55771	15	20.109711796513
4	56402	15.1	20.083153435306
4	57033	15.2	19.99514909988
4	57664	15.3	20.021536807017
4	58295	15.4	20.013187408752
4	58926	15.5	20.060340611103
4	59557	15.6	20.07861948543
4	60188	15.7	20.064923873458
4	60819	15.8	20.057022697085
4	61450	15.9	20.059892241564
4	62081	16	20.013512958533
4	62712	16.1	20.089952599765
4	63343	16.2	20.055393258382
4	63974	16.3	20.016110267469
4	64605	16.4	20.077858435542
4	65236	16.5	20.076149567869
4	65867	16.6	20.036190772606
4	66498	16.7	19.999298314143
4	67129	16.8	20.103313237505
4	67760	16.9	20.09325289146
4	68391	17	20.045957714044
4	69022	17.1	20.097963803981
4	69653	17.2	19.999835400989
4	70284	17.3	20.034193703393
4	70915	17.4	20.0114221083
4	71546	17.5	20.014668591511
4	72177	17.6	20.029150109198
4	72808	17.7	20.077365271626
4	73439	17.8	20.081979287039
4	74070	17.9	20.093940964756
4	74701	18	20.022958927224
4	75332	18.1	20.07062261268
4	75963	18.2	20.017057169224
4	76594	18.3	20.063278858275
4	77225	18.4	20.068063121319
4	77856	18.5	20.006618470841
4	78487	18.6	20.043458339015
4	79118	18.7	20.076615040121
4	79749	18.8	20.023106325858
4	80380	18.9	20.082982316623
4	81011	19	20.096536765469
4	81642	19.1	20.047691778876
4	82273	19.2	20.077742183995
4	82904	19.3	19.992906811752
4	83535	19.4	20.116938538011
4	84166	19.5	20.091688448712
4	84797	19.6	20.03075130987
3	2	0.1	416.34012864494
3	12	0.2	416.34012864494
3	22	0.3	414.34049627493
3	32	0.4	412.33286265521
3	42	0.5	410.32363562099
3	52	0.6	408.322362082
3	62	0.7	406.31124812252
3	72	0.8	404.29984091668
3	82	0.9	402.29270296926
3	92	1	400.28215322244
3	102	1.1	398.28300902575
3	133	1.2	396.27879525921
3	164	1.3	394.27475596839
3	195	1.4	392.26970170023
3	226	1.5	390.26402911879
3	257	1.6	388.26280732059
3	288	1.7	386.26067299327
3	319	1.8	384.25379329959
3	350	1.9	382.24496155197
3	381	2	380.23503524891
3	412	2.1	378.23250203654
3	476	2.2	376.23243702858
3	540	2.3	374.22930810845
3	604	2.4	372.2280674626
3	668	2.5	370.22487784411
3	732	2.6	368.22335655004
3	796	2.7	366.2194212955
3	860	2.8	364.21450404894
3	924	2.9	362.20365770925
3	988	3	360.19695066065
3	1052	3.1	358.19573383749
3	1161	3.2	356.19670895984
3	1270	3.3	354.19348651395
3	1379	3.4	352.19086234828
3	1488	3.5	350.1834865116
3	1597	3.6	348.17676927389
3	1706	3.7	346.1742327055
3	1815	3.8	344.17514507081
3	1924	3.9	342.1680552095
3	2033	4	340.15717789536
3	2142	4.1	338.15524984683
3	2308	4.2	336.1469906774
3	2474	4.3	334.13939379782
3	2640	4.4	332.13258881876
3	2806	4.5	330.12863468123
3	2972	4.6	328.12540374334
3	3138	4.7	326.12149362889
3	3304	4.8	324.1218453744
3	3470	4.9	322.11877788984
3	3636	5	320.11183981168
3	3802	5.1	318.11191257912
3	4037	5.2	316.10759851317
3	4272	5.3	314.09892016622
3	4507	5.4	312.08783176245
3	4742	5.5	310.08446242537
3	4977	5.6	308.08014676248
3	5212	5.7	306.07085624944
3	5447	5.8	304.06300714417
3	5682	5.9	302.05816491839
3	5917	6	300.04980813538
3	6152	6.1	298.04133420646
3	6468	6.2	296.03956703802
3	6784	6.3	294.0363033611
3	7100	6.4	292.03617725626
3	7416	6.5	290.02440511207
3	7732	6.6	288.01693651491
3	8048	6.7	286.00890565505
3	8364	6.8	284.00876667057
3	8680	6.9	281.99916149233
3	8996	7	279.9964470961
3	9312	7.1	277.99557237851
3	9721	7.2	275.99381700521
3	10130	7.3	273.99462929301
3	10539	7.4	271.99064663885
3	10948	7.5	269.98129854046
3	11357	7.6	267.97267803512
3	11766	7.7	265.96394766093
3	12175	7.8	263.9634748449
3	12584	7.9	261.95229694476
3	12993	8	259.94747417708
3	13402	8.1	257.94182573202
3	13916	8.2	255.93012044713
3	14430	8.3	253.92401422978
3	14944	8.4	251.91798877597
3	15458	8.5	249.90775247568
3	15972	8.6	247.90600183688
3	16486	8.7	245.89992298794
3	17000	8.8	243.89981581947
3	17514	8.9	241.89933202877
3	18028	9	239.89283221361
3	18542	9.1	237.88818251869
3	19173	9.2	235.88644616867
3	19804	9.3	233.88216157601
3	20435	9.4	231.87125482275
3	21066	9.5	229.86016178231
3	21697	9.6	227.85100199587
3	22328	9.7	225.84751446921
3	22959	9.8	223.83898632296
3	23590	9.9	221.83793423692
3	24221	10	219.82954439408
3	24852	10.1	217.81974274936
3	25483	10.2	215.81883675293
3	26114	10.3	213.81799845489
3	26745	10.4	211.8066448405
3	27376	10.5	209.80582388083
3	28007	10.6	207.8064135912
3	28638	10.7	205.79684124494
3	29269	10.8	203.792981323
3	29900	10.9	201.78327888509
3	30531	11	199.77632324386
3	31162	11.1	197.77595474497
3	31793	11.2	195.77377517868
3	32424	11.3	193.76198541917
3	33055	11.4	191.76055857896
3	33686	11.5	189.75865670476
3	34317	11.6	187.74986244193
3	34948	11.7	185.75065277953
3	35579	11.8	183.74645080518
3	36210	11.9	181.74361404179
3	36841	12	179.73824126828
3	37472	12.1	177.73479365039
3	38103	12.2	175.72822526391
3	38734	12.3	173.72890616382
3	39365	12.4	171.71774224425
3	39996	12.5	169.71684678925
3	40627	12.6	167.71422651837
3	41258	12.7	165.71506411582
3	41889	12.8	163.70343461212
3	42520	12.9	161.70251118984
3	43151	13	159.702120161
3	43782	13.1	157.70086819425
3	44413	13.2	155.69580121419
3	45044	13.3	153.68424249821
3	45675	13.4	151.68487365362
3	46306	13.5	149.67312370768
3	46937	13.6	147.6639442085
3	47568	13.7	145.65766869645
3	48199	13.8	143.65181827698
3	48830	13.9	141.65143686768
3	49461	14	139.64917490535
3	50092	14.1	137.64322631383
3	50723	14.2	135.63544917675
3	51354	14.3	133.62411468089
3	51985	14.4	131.62005477724
3	52616	14.5	129.61967988667
3	53247	14.6	127.61028194219
3	53878	14.7	125.60532563274
3	54509	14.8	123.59832993509
3	55140	14.9	121.59648232253
3	55771	15	119.59279042267
3	56402	15.1	117.58186996876
3	57033	15.2	115.57360528397
3	57664	15.3	113.57414081075
3	58295	15.4	111.57203763337
3	58926	15.5	109.57076937475
3	59557	15.6	107.56478591484
3	60188	15.7	105.55697461361
3	60819	15.8	103.55053283903
3	61450	15.9	101.54488116215
3	62081	16	99.538942538067
3	62712	16.1	97.537641725296
3	63343	16.2	95.528697141216
3	63974	16.3	93.523208404101
3	64605	16.4	91.521647866987
3	65236	16.5	89.513912668823
3	65867	16.6	87.506348353116
3	66498	16.7	85.502779816141
3	67129	16.8	83.502900431952
3	67760	16.9	81.4926198178
3	68391	17	79.483345212876
3	69022	17.1	77.478800006394
3	69653	17.2	75.469054322101
3	70284	17.3	73.469121230583
3	70915	17.4	71.465752395491
3	71546	17.5	69.464660662469
3	72177	17.6	67.463244289315
3	72808	17.7	65.460379800921
3	73439	17.8	63.452693917904
3	74070	17.9	61.444546644985
3	74701	18	59.435203234467
3	75332	18.1	57.432957848653
3	75963	18.2	55.425946214523
3	76594	18.3	53.424290989623
3	77225	18.4	51.418013712409
3	77856	18.5	49.411258020959
3	78487	18.6	47.410646639566
3	79118	18.7	45.406351364282
3	79749	18.8	43.398740502523
3	80380	18.9	41.396480377218
3	81011	19	39.388232803871
3	81642	19.1	37.378629819829
3	82273	19.2	35.373911211238
3	82904	19.3	33.366187637935
3	83535	19.4	31.366947387864
3	84166	19.5	29.35530427803
3	84797	19.6	27.346186113435
2	2	0.1	26.697598627787
2	12	0.2	26.697598627787
2	22	0.3	26.716261795986
2	32	0.4	26.734999642246
2	42	0.5	26.753752360322
2	52	0.6	26.772430846042
2	62	0.7	26.791201175357
2	72	0.8	26.809974241627
2	82	0.9	26.828707461629
2	92	1	26.847472524978
2	102	1.1	26.866131136909
2	133	1.2	26.884837064654
2	164	1.3	26.903541363966
2	195	1.4	26.922255136365
2	226	1.5	26.940974679667
2	257	1.6	26.959652682476
2	288	1.7	26.978339202192
2	319	1.8	26.997070011834
2	350	1.9	27.015819040581
2	381	2	27.034578285142
2	412	2.1	27.053268527772
2	476	2.2	27.071935733911
2	540	2.3	27.09063153646
2	604	2.4	27.109309715179
2	668	2.5	27.128006084244
2	732	2.6	27.146686882337
2	796	2.7	27.165390210647
2	860	2.8	27.184102704182
2	924	2.9	27.202870535721
2	988	3	27.221599734015
2	1052	3.1	27.24027769039
2	1161	3.2	27.25893518868
2	1270	3.3	27.277631864133
2	1379	3.4	27.296322955658
2	1488	3.5	27.315058395952
2	1597	3.6	27.333787689344
2	1706	3.7	27.352477963297
2	1815	3.8	27.371136047317
2	1924	3.9	27.389868818517
2	2033	4	27.40863693915
2	2142	4.1	27.427321533604
2	2308	4.2	27.446065218307
2	2474	4.3	27.464802721661
2	2640	4.4	27.48353283397
2	2806	4.5	27.50223633852
2	2972	4.6	27.520933093231
2	3138	4.7	27.539636186901
2	3304	4.8	27.558299503354
2	3470	4.9	27.576994732507
2	3636	5	27.595726087069
2	3802	5.1	27.614392007308
2	4037	5.2	27.633098871178
2	4272	5.3	27.651846468191
2	4507	5.4	27.670616558986
2	4742	5.5	27.689314605419
2	4977	5.6	27.708021484193
2	5212	5.7	27.726774794736
2	5447	5.8	27.745514652187
2	5682	5.9	27.764226445531
2	5917	6	27.782971041291
2	6152	6.1	27.801716730409
2	6468	6.2	27.820399823321
2	6784	6.3	27.839096883596
2	7100	6.4	27.85776465997
2	7416	6.5	27.876541132319
2	7732	6.6	27.895277438375
2	8048	6.7	27.914018992196
2	8364	6.8	27.93268688878
2	8680	6.9	27.951443136186
2	8996	7	27.97013506986
2	9312	7.1	27.988809833261
2	9721	7.2	28.007492816085
2	10130	7.3	28.026151834159
2	10539	7.4	28.044855604864
2	10948	7.5	28.063609452868
2	11357	7.6	28.082356510027
2	11766	7.7	28.101104592626
2	12175	7.8	28.119775604959
2	12584	7.9	28.138546531051
2	12993	8	28.157258142786
2	13402	8.1	28.175977460817
2	13916	8.2	28.194753309148
2	14430	8.3	28.213476899704
2	14944	8.4	28.23219973647
2	15458	8.5	28.250961874328
2	15972	8.6	28.269644812965
2	16486	8.7	28.288368148083
2	17000	8.8	28.307035747718
2	17514	8.9	28.325706862482
2	18028	9	28.344434126604
2	18542	9.1	28.363144123
2	19173	9.2	28.381826928275
2	19804	9.3	28.400533517062
2	20435	9.4	28.419301912458
2	21066	9.5	28.438072046529
2	21697	9.6	28.456824136961
2	22328	9.7	28.475523286492
2	22959	9.8	28.494269481636
2	23590	9.9	28.51294590047
2	24221	10	28.531690804787
2	24852	10.1	28.550448885875
2	25483	10.2	28.569123941211
2	26114	10.3	28.587798364697
2	26745	10.4	28.606570930783
2	27376	10.5	28.625245192445
2	28007	10.6	28.643906287901
2	28638	10.7	28.662662228877
2	29269	10.8	28.681364854085
2	29900	10.9	28.700122009245
2	30531	11	28.718853527729
2	31162	11.1	28.737523566439
2	31793	11.2	28.756210508385
2	32424	11.3	28.774987145143
2	33055	11.4	28.79366706167
2	33686	11.5	28.812351411832
2	34317	11.6	28.831100090722
2	34948	11.7	28.849759313664
2	35579	11.8	28.868465131349
2	36210	11.9	28.887158207112
2	36841	12	28.905874952217
2	37472	12.1	28.924573729268
2	38103	12.2	28.943301633387
2	38734	12.3	28.961961877743
2	39365	12.4	28.98073267335
2	39996	12.5	28.9994076303
2	40627	12.6	29.018098685473
2	41258	12.7	29.036757467325
2	41889	12.8	29.055532608368
2	42520	12.9	29.074207826344
2	43151	13	29.092878075333
2	43782	13.1	29.111556359714
2	44413	13.2	29.130270250757
2	45044	13.3	29.149044731117
2	45675	13.4	29.167705439754
2	46306	13.5	29.18648170492
2	46937	13.6	29.205233979337
2	47568	13.7	29.223959149971
2	48199	13.8	29.242680353089
2	48830	13.9	29.261350512296
2	49461	14	29.280038223268
2	50092	14.1	29.298760342655
2	50723	14.2	29.317499528406
2	51354	14.3	29.336271916053
2	51985	14.4	29.35497640775
2	52616	14.5	29.373646506115
2	53247	14.6	29.392400819347
2	53878	14.7	29.411113677469
2	54509	14.8	29.429845569811
2	55140	14.9	29.448529413532
2	55771	15	29.46723047054
2	56402	15.1	29.485998993809
2	57033	15.2	29.504742729988
2	57664	15.3	29.523404331156
2	58295	15.4	29.542090560141
2	58926	15.5	29.560768996578
2	59557	15.6	29.579491441402
2	60188	15.7	29.598230946017
2	60819	15.8	29.61695766843
2	61450	15.9	29.635677016623
2	62081	16	29.654399042981
2	62712	16.1	29.673077783257
2	63343	16.2	29.69182786514
2	63974	16.3	29.710545692568
2	64605	16.4	29.729226856928
2	65236	16.5	29.747965651251
2	65867	16.6	29.766702850676
2	66498	16.7	29.785402756301
2	67129	16.8	29.804068229957
2	67760	16.9	29.822830781409
2	68391	17	29.841583943476
2	69022	17.1	29.86029296465
2	69653	17.2	29.879050523442
2	70284	17.3	29.897716498365
2	70915	17.4	29.916414540112
2	71546	17.5	29.935091328983
2	72177	17.6	29.953771147818
2	72808	17.7	29.972464482346
2	73439	17.8	29.991202816396
2	74070	17.9	30.009945456735
2	74701	18	30.028699260985
2	75332	18.1	30.047386817244
2	75963	18.2	30.066118858326
2	76594	18.3	30.084800906436
2	77225	18.4	30.103526093545
2	77856	18.5	30.122255745838
2	78487	18.6	30.140928051443
2	79118	18.7	30.159634739934
2	79749	18.8	30.178372373788
2	80380	18.9	30.197060067614
2	81011	19	30.215803644088
2	81642	19.1	30.234559871015
2	82273	19.2	30.253270510603
2	82904	19.3	30.272009196427
2	83535	19.4	30.290668704853
2	84166	19.5	30.309443972886
2	84797	19.6	30.328195674849
13	164	1.3	3.5221525268685
13	195	1.4	3.3505957421556
13	226	1.5	1.0174999215192
13	257	1.6	3.9828369085495
13	288	1.7	0.94979276717877
13	319	1.8	4.1908384780658
13	350	1.9	2.4389968112938
13	381	2	2.402163054243
13	412	2.1	0.65243557978699
13	476	2.2	6.0734018663896
13	540	2.3	0.973
13	604	2.4	5.4510911049655
13	668	2.5	1.1838981757852
13	732	2.6	5.0993230982999
13	796	2.7	0.60933205436455
13	860	2.8	3.6574066515785
13	924	2.9	0.973
13	988	3	7.4850273735753
13	1052	3.1	0.973
13	1161	3.2	5.7330005811063
13	1270	3.3	0.66431760747238
13	1379	3.4	0.69367140999148
13	1488	3.5	7.1305216057302
13	1597	3.6	0.973
13	1706	3.7	4.9646803435688
13	1815	3.8	2.5446145133148
13	1924	3.9	1.1922927366856
13	2033	4	4.7816888587471
13	2142	4.1	0.973
13	2308	4.2	6.6907580167388
13	2474	4.3	0.973
13	2640	4.4	3.9183469838231
13	2806	4.5	0.77648389530129
13	2972	4.6	2.82458090301
13	3138	4.7	5.3843479096631
13	3304	4.8	0.973
13	3470	4.9	8.1444027286341
13	3636	5	1.1381212627182
13	3802	5.1	2.839689031414
13	4037	5.2	4.3510215820762
13	4272	5.3	3.6016864285653
13	4507	5.4	0.973
13	4742	5.5	0.73729793081246
13	4977	5.6	7.4122954037912
13	5212	5.7	0.973
13	5447	5.8	0.973
13	5682	5.9	5.9395020924994
13	5917	6	4.3556624024861
13	6152	6.1	0.973
13	6468	6.2	2.5671192929845
13	6784	6.3	2.03877063011
13	7100	6.4	4.4613453835625
13	7416	6.5	3.6171067567565
13	7732	6.6	4.510287507531
13	8048	6.7	4.3619130143999
13	8364	6.8	2.6478385781396
13	8680	6.9	2.8440616472907
13	8996	7	0.973
13	9312	7.1	5.1325680345416
13	9721	7.2	4.4576894357254
13	10130	7.3	0.973
13	10539	7.4	7.3534537147914
13	10948	7.5	0.973
13	11357	7.6	5.9756174660722
13	11766	7.7	2.259642502239
13	12175	7.8	0.973
13	12584	7.9	3.4418612653715
13	12993	8	6.6802603298936
13	13402	8.1	0.973
13	13916	8.2	7.7614475248626
13	14430	8.3	2.8420792346516
13	14944	8.4	1.9468542507446
13	15458	8.5	0.973
13	15972	8.6	3.323117735295
13	16486	8.7	1.0806654368714
13	17000	8.8	3.6936822475636
13	17514	8.9	6.9927248856146
13	18028	9	0.973
13	18542	9.1	5.1144962417294
13	19173	9.2	4.8728962881075
13	19804	9.3	2.0782563438757
13	20435	9.4	0.973
13	21066	9.5	6.3453276940308
13	21697	9.6	3.3769885960415
13	22328	9.7	0.973
13	22959	9.8	3.0032960483631
13	23590	9.9	1.9220822148797
13	24221	10	6.0468716211283
13	24852	10.1	2.8146872997102
13	25483	10.2	0.973
13	26114	10.3	6.3017198077812
13	26745	10.4	3.8644356237334
13	27376	10.5	2.9358214863888
13	28007	10.6	1.9722475878922
13	28638	10.7	3.8594053761556
13	29269	10.8	1.598111514821
13	29900	10.9	1.8533874890534
13	30531	11	1.0288239196345
13	31162	11.1	4.0174906333836
13	31793	11.2	6.8515189628583
13	32424	11.3	0.973
13	33055	11.4	7.4253681023138
13	33686	11.5	0.973
13	34317	11.6	2.5881987312365
13	34948	11.7	5.0415037818666
13	35579	11.8	3.1766790852134
13	36210	11.9	3.0501538432298
13	36841	12	3.2119831461761
13	37472	12.1	1.529519803431
13	38103	12.2	4.0302429694236
13	38734	12.3	4.0352699232817
13	39365	12.4	0.973
13	39996	12.5	6.0991639327894
13	40627	12.6	4.1273128733365
13	41258	12.7	2.8106777302754
13	41889	12.8	0.973
13	42520	12.9	2.1341297434259
13	43151	13	7.2769917258119
13	43782	13.1	4.0076822641145
13	44413	13.2	0.973
13	45044	13.3	4.8950003887514
13	45675	13.4	4.3199524523748
13	46306	13.5	1.0084323240529
13	46937	13.6	4.8358934125224
13	47568	13.7	0.973
13	48199	13.8	3.4188518164678
13	48830	13.9	4.0070995161033
13	49461	14	2.2334691921748
13	50092	14.1	1.1553975688729
13	50723	14.2	3.2856666129703
13	51354	14.3	2.1530826231927
13	51985	14.4	7.7847181242201
13	52616	14.5	1.7305311996009
13	53247	14.6	0.973
13	53878	14.7	6.5243067290964
13	54509	14.8	1.1561042910661
13	55140	14.9	2.1115373121832
13	55771	15	4.4118796684035
13	56402	15.1	2.0380820719849
13	57033	15.2	1.9357187053682
13	57664	15.3	2.3179402089413
13	58295	15.4	5.0588597411462
13	58926	15.5	1.3940848342861
13	59557	15.6	6.3033937443769
13	60188	15.7	0.973
13	60819	15.8	3.0200243145097
13	61450	15.9	3.7075392188687
13	62081	16	1.8242598089372
13	62712	16.1	3.0903530600666
13	63343	16.2	5.805120095712
13	63974	16.3	4.0760146448526
13	64605	16.4	1.1149280347044
13	65236	16.5	3.8450944405201
13	65867	16.6	0.973
13	66498	16.7	7.1258410728557
13	67129	16.8	1.5489899692908
13	67760	16.9	1.1405827884569
13	68391	17	5.8289612379382
13	69022	17.1	2.5051276516094
13	69653	17.2	0.973
13	70284	17.3	4.464319597369
13	70915	17.4	2.3307615765891
13	71546	17.5	3.3276868253799
13	72177	17.6	5.4436575285454
13	72808	17.7	0.973
13	73439	17.8	2.3716192531279
13	74070	17.9	3.7899003069557
13	74701	18	2.686256384475
13	75332	18.1	3.9662552868562
13	75963	18.2	0.973
13	76594	18.3	4.4361330409825
13	77225	18.4	1.7268956848599
13	77856	18.5	3.3560489192624
13	78487	18.6	3.7541078933979
13	79118	18.7	4.9456321507318
13	79749	18.8	0.74180639168466
13	80380	18.9	4.1756020718421
13	81011	19	3.5001898545549
13	81642	19.1	0.973
13	82273	19.2	6.4936237500592
13	82904	19.3	4.8345754892048
13	83535	19.4	0.973
13	84166	19.5	7.7809784098849
13	84797	19.6	0.973
13	85428	19.7	4.7859568474999
13	85942	19.8	6.4599342665723
13	86456	19.9	2.458865862191
13	86970	20	1.2982441121935
13	87484	20.1	2.4519897975844
13	87998	20.2	2.0828108868055
13	88512	20.3	3.2462316461616
13	89026	20.4	1.1992758207313
13	89540	20.5	3.4830637319244
13	90054	20.6	3.4690169203827
12	164	1.3	0.14431290873326
12	195	1.4	0.10841945563445
12	226	1.5	-0.37324505357539
12	257	1.6	0.23969140965491
12	288	1.7	-0.38706288905814
12	319	1.8	0.28319939998912
12	350	1.9	-0.079068850050703
12	381	2	-0.086445431294848
12	412	2.1	-0.4483299344545
12	476	2.2	0.67235756115988
12	540	2.3	-0.52421395578424
12	604	2.4	0.54350799140522
12	668	2.5	-0.33858845925426
12	732	2.6	0.47000456273093
12	796	2.7	-0.45764742502943
12	860	2.8	0.17313321258406
12	924	2.9	-0.496203418565
12	988	3	0.96168419595344
12	1052	3.1	-0.64920130993706
12	1161	3.2	0.60016032340936
12	1270	3.3	-0.4464094094001
12	1379	3.4	-0.43984670971984
12	1488	3.5	0.88883006214164
12	1597	3.6	-0.64073959968518
12	1706	3.7	0.44252380239776
12	1815	3.8	-0.057708927988998
12	1924	3.9	-0.33686813814565
12	2033	4	0.40463240025563
12	2142	4.1	-0.47629148112609
12	2308	4.2	0.7970235307701
12	2474	4.3	-0.7580028162338
12	2640	4.4	0.22705676751212
12	2806	4.5	-0.422744506225
12	2972	4.6	0.0020606500795139
12	3138	4.7	0.5298411147669
12	3304	4.8	-0.65907533611171
12	3470	4.9	1.096963779931
12	3636	5	-0.34870649108196
12	3802	5.1	0.0031263879034427
12	4037	5.2	0.31409782248083
12	4272	5.3	0.15874722495212
12	4507	5.4	-0.61303409533576
12	4742	5.5	-0.43093329551631
12	4977	5.6	0.9456125855213
12	5212	5.7	-0.48533518174661
12	5447	5.8	-0.48446139954031
12	5682	5.9	0.64376747468486
12	5917	6	0.31481621339918
12	6152	6.1	-0.84418956704905
12	6468	6.2	-0.0516137672588
12	6784	6.3	-0.16075120398312
12	7100	6.4	0.34020474476275
12	7416	6.5	0.16465209722519
12	7732	6.6	0.34775752078279
12	8048	6.7	0.31556179495528
12	8364	6.8	-0.037907004379676
12	8680	6.9	0.0025698753073655
12	8996	7	-1.0192939064
12	9312	7.1	0.47781061397398
12	9721	7.2	0.33651532877702
12	10130	7.3	-0.96722658399958
12	10539	7.4	0.9348389818566
12	10948	7.5	-0.67199891763739
12	11357	7.6	0.6503683795221
12	11766	7.7	-0.11698455587027
12	12175	7.8	-0.79072090480476
12	12584	7.9	0.12999548867811
12	12993	8	0.79580676478798
12	13402	8.1	-0.84887554852759
12	13916	8.2	1.0177315057721
12	14430	8.3	0.0023920070146843
12	14944	8.4	-0.18193875320719
12	15458	8.5	-0.49940983259585
12	15972	8.6	0.10387916516049
12	16486	8.7	-0.35973739167677
12	17000	8.8	0.18133154325188
12	17514	8.9	0.85827710963784
12	18028	9	-1.0231667509069
12	18542	9.1	0.47393022971225
12	19173	9.2	0.42167289399078
12	19804	9.3	-0.15479883034715
12	20435	9.4	-0.54467804662416
12	21066	9.5	0.72542985870967
12	21697	9.6	0.11235553631558
12	22328	9.7	-0.93779289703814
12	22959	9.8	0.038409514958033
12	23590	9.9	-0.18518086650875
12	24221	10	0.66585790030658
12	24852	10.1	-0.002247926266854
12	25483	10.2	-0.83158838646487
12	26114	10.3	0.71932536272797
12	26745	10.4	0.21429789012764
12	27376	10.5	0.022366319200948
12	28007	10.6	-0.17626171167937
12	28638	10.7	0.21300048569682
12	29269	10.8	-0.253536142176
12	29900	10.9	-0.20028253910134
12	30531	11	-0.37043830708136
12	31162	11.1	0.24826442284976
12	31793	11.2	0.82911800171715
12	32424	11.3	-1.1762450279901
12	33055	11.4	0.94931446223054
12	33686	11.5	-0.75482095922343
12	34317	11.6	-0.047182114329196
12	34948	11.7	0.45892507354729
12	35579	11.8	0.072882837243355
12	36210	11.9	0.046553481300364
12	36841	12	0.079715844243786
12	37472	12.1	-0.26746176467277
12	38103	12.2	0.24890506893861
12	38734	12.3	0.24881248492747
12	39365	12.4	-0.85356780698056
12	39996	12.5	0.67604040233419
12	40627	12.6	0.26739579953716
12	41258	12.7	-0.004258190141968
12	41889	12.8	-0.98371341759339
12	42520	12.9	-0.14093926106579
12	43151	13	0.91893850357735
12	43782	13.1	0.24256467458326
12	44413	13.2	-0.99537353720514
12	45044	13.3	0.42869859938509
12	45675	13.4	0.30823675191495
12	46306	13.5	-0.37527606736404
12	46937	13.6	0.41460193614476
12	47568	13.7	-0.65135117277968
12	48199	13.8	0.1240111777792
12	48830	13.9	0.24471182359846
12	49461	14	-0.12177767783868
12	50092	14.1	-0.34433222110383
12	50723	14.2	0.096903761220162
12	51354	14.3	-0.13740704911761
12	51985	14.4	1.0216616651276
12	52616	14.5	-0.22675034231504
12	53247	14.6	-0.87935602313372
12	53878	14.7	0.76408332150894
12	54509	14.8	-0.34465197995306
12	55140	14.9	-0.1465057990281
12	55771	15	0.3283768357942
12	56402	15.1	-0.16213656777982
12	57033	15.2	-0.18288614563645
12	57664	15.3	-0.10341587977017
12	58295	15.4	0.46210021681617
12	58926	15.5	-0.29520889294798
12	59557	15.6	0.71656170543282
12	60188	15.7	-0.96910977258812
12	60819	15.8	0.0422577037709
12	61450	15.9	0.18401286345906
12	62081	16	-0.20559335679284
12	62712	16.1	0.056711959023978
12	63343	16.2	0.61549649750813
12	63974	16.3	0.25700882880482
12	64605	16.4	-0.35355186678935
12	65236	16.5	0.20997628069019
12	65867	16.6	-0.78351209172979
12	66498	16.7	0.88674122258091
12	67129	16.8	-0.26391080988105
12	67760	16.9	-0.34777959219646
12	68391	17	0.61899172863921
12	69022	17.1	-0.066892526322029
12	69653	17.2	-0.67179699447006
12	70284	17.3	0.33930486277676
12	70915	17.4	-0.10168203129432
12	71546	17.5	0.10421210571657
12	72177	17.6	0.53861105993857
12	72808	17.7	-0.52637231333648
12	73439	17.8	-0.093293140665622
12	74070	17.9	0.19929940078875
12	74701	18	-0.028732605394914
12	75332	18.1	0.23482907691506
12	75963	18.2	-0.9601407809183
12	76594	18.3	0.33495808823499
12	77225	18.4	-0.22572138221005
12	77856	18.5	0.1116780719487
12	78487	18.6	0.19335022042508
12	79118	18.7	0.43765180932823
12	79749	18.8	-0.43035568341146
12	80380	18.9	0.27927371726836
12	81011	19	0.13907294142992
12	81642	19.1	-0.89926129889211
12	82273	19.2	0.75854675429873
12	82904	19.3	0.41330903347117
12	83535	19.4	-1.0698634699918
12	84166	19.5	1.0216484688921
12	84797	19.6	-1.0355982016539
12	85428	19.7	0.4068810590077
12	85942	19.8	0.74817061799113
12	86456	19.9	-0.076857687882139
12	86970	20	-0.31578937659503
12	87484	20.1	-0.077129224082455
12	87998	20.2	-0.15306470764337
12	88512	20.3	0.087318971054629
12	89026	20.4	-0.33546285377817
12	89540	20.5	0.13708860238548
12	90054	20.6	0.13364988006654
11	133	1.2	20.051123743171
11	164	1.3	20.065555034045
11	195	1.4	20.076396979608
11	226	1.5	20.039072474251
11	257	1.6	20.063041615216
11	288	1.7	20.02433532631
11	319	1.8	20.052655266309
11	350	1.9	20.044748381304
11	381	2	20.036103838175
11	412	2.1	19.991270844729
11	476	2.2	20.058506600845
11	540	2.3	20.006085205267
11	604	2.4	20.060436004407
11	668	2.5	20.026577158482
11	732	2.6	20.073577614755
11	796	2.7	20.027812872252
11	860	2.8	20.04512619351
11	924	2.9	19.995505851654
11	988	3	20.091674271249
11	1052	3.1	20.026754140256
11	1161	3.2	20.086770172596
11	1270	3.3	20.042129231656
11	1379	3.4	19.998144560684
11	1488	3.5	20.087027566899
11	1597	3.6	20.02295360693
11	1706	3.7	20.06720598717
11	1815	3.8	20.061435094371
11	1924	3.9	20.027748280556
11	2033	4	20.068211520582
11	2142	4.1	20.020582372469
11	2308	4.2	20.100284725546
11	2474	4.3	20.024484443923
11	2640	4.4	20.047190120674
11	2806	4.5	20.004915670052
11	2972	4.6	20.00512173506
11	3138	4.7	20.058105846536
11	3304	4.8	19.992198312925
11	3470	4.9	20.101894690918
11	3636	5	20.06702404181
11	3802	5.1	20.0673366806
11	4037	5.2	20.098746462849
11	4272	5.3	20.114621185344
11	4507	5.4	20.05331777581
11	4742	5.5	20.010224446259
11	4977	5.6	20.104785704811
11	5212	5.7	20.056252186636
11	5447	5.8	20.007806046682
11	5682	5.9	20.07218279415
11	5917	6	20.10366441549
11	6152	6.1	20.019245458785
11	6468	6.2	20.01408408206
11	6784	6.3	19.998008961661
11	7100	6.4	20.032029436138
11	7416	6.5	20.04849464586
11	7732	6.6	20.083270397938
11	8048	6.7	20.114826577434
11	8364	6.8	20.111035876996
11	8680	6.9	20.111292864527
11	8996	7	20.009363473887
11	9312	7.1	20.057144535284
11	9721	7.2	20.090796068162
11	10130	7.3	19.994073409762
11	10539	7.4	20.087557307947
11	10948	7.5	20.020357416184
11	11357	7.6	20.085394254136
11	11766	7.7	20.073695798549
11	12175	7.8	19.994623708068
11	12584	7.9	20.007623256936
11	12993	8	20.087203933415
11	13402	8.1	20.002316378562
11	13916	8.2	20.104089529139
11	14430	8.3	20.104328729841
11	14944	8.4	20.08613485452
11	15458	8.5	20.036193871261
11	15972	8.6	20.046581787777
11	16486	8.7	20.010608048609
11	17000	8.8	20.028741202934
11	17514	8.9	20.114568913898
11	18028	9	20.012252238807
11	18542	9.1	20.059645261778
11	19173	9.2	20.101812551178
11	19804	9.3	20.086332668143
11	20435	9.4	20.03186486348
11	21066	9.5	20.104407849351
11	21697	9.6	20.115643402983
11	22328	9.7	20.021864113279
11	22959	9.8	20.025705064775
11	23590	9.9	20.007186978124
11	24221	10	20.073772768155
11	24852	10.1	20.073547975528
11	25483	10.2	19.990389136882
11	26114	10.3	20.062321673154
11	26745	10.4	20.083751462167
11	27376	10.5	20.085988094087
11	28007	10.6	20.068361922919
11	28638	10.7	20.089661971489
11	29269	10.8	20.064308357271
11	29900	10.9	20.044280103361
11	30531	11	20.007236272653
11	31162	11.1	20.032062714938
11	31793	11.2	20.11497451511
11	32424	11.3	19.997350012311
11	33055	11.4	20.092281458534
11	33686	11.5	20.016799362611
11	34317	11.6	20.012081151179
11	34948	11.7	20.057973658533
11	35579	11.8	20.065261942258
11	36210	11.9	20.069917290388
11	36841	12	20.077888874812
11	37472	12.1	20.051142698345
11	38103	12.2	20.076033205239
11	38734	12.3	20.100914453731
11	39365	12.4	20.015557673033
11	39996	12.5	20.083161713267
11	40627	12.6	20.10990129322
11	41258	12.7	20.109475474206
11	41889	12.8	20.011104132447
11	42520	12.9	19.99701020634
11	43151	13	20.088904056698
11	43782	13.1	20.113160524156
11	44413	13.2	20.013623170436
11	45044	13.3	20.056493030374
11	45675	13.4	20.087316705566
11	46306	13.5	20.049789098829
11	46937	13.6	20.091249292444
11	47568	13.7	20.026114175166
11	48199	13.8	20.038515292944
11	48830	13.9	20.062986475304
11	49461	14	20.05080870752
11	50092	14.1	20.01637548541
11	50723	14.2	20.026065861532
11	51354	14.3	20.01232515662
11	51985	14.4	20.114491323133
11	52616	14.5	20.091816288901
11	53247	14.6	20.003880686588
11	53878	14.7	20.080289018739
11	54509	14.8	20.045823820743
11	55140	14.9	20.03117324084
11	55771	15	20.06401092442
11	56402	15.1	20.047797267642
11	57033	15.2	20.029508653078
11	57664	15.3	20.019167065101
11	58295	15.4	20.065377086783
11	58926	15.5	20.035856197488
11	59557	15.6	20.107512368031
11	60188	15.7	20.010601390772
11	60819	15.8	20.01482716115
11	61450	15.9	20.033228447495
11	62081	16	20.012669111816
11	62712	16.1	20.018340307719
11	63343	16.2	20.079889957469
11	63974	16.3	20.10559084035
11	64605	16.4	20.070235653671
11	65236	16.5	20.09123328174
11	65867	16.6	20.012882072567
11	66498	16.7	20.101556194825
11	67129	16.8	20.075165113837
11	67760	16.9	20.040387154617
11	68391	17	20.102286327481
11	69022	17.1	20.095597074849
11	69653	17.2	20.028417375402
11	70284	17.3	20.06234786168
11	70915	17.4	20.05217965855
11	71546	17.5	20.062600869122
11	72177	17.6	20.116461975116
11	72808	17.7	20.063824743782
11	73439	17.8	20.054495429716
11	74070	17.9	20.074425369794
11	74701	18	20.071552109255
11	75332	18.1	20.095035016946
11	75963	18.2	19.999020938855
11	76594	18.3	20.032516747678
11	77225	18.4	20.009944609457
11	77856	18.5	20.021112416652
11	78487	18.6	20.040447438695
11	79118	18.7	20.084212619627
11	79749	18.8	20.041177051286
11	80380	18.9	20.069104423013
11	81011	19	20.083011717156
11	81642	19.1	19.993085587267
11	82273	19.2	20.068940262697
11	82904	19.3	20.110271166044
11	83535	19.4	20.003284819045
11	84166	19.5	20.105449665934
11	84797	19.6	20.001889845768
11	85428	19.7	20.042577951669
11	85942	19.8	20.117395013468
11	86456	19.9	20.10970924468
11	86970	20	20.078130307021
11	87484	20.1	20.070417384612
11	87998	20.2	20.055110913848
11	88512	20.3	20.063842810954
11	89026	20.4	20.030296525576
11	89540	20.5	20.044005385814
11	90054	20.6	20.057370373821
10	102	1.1	416.30025728988
10	133	1.2	416.30025728988
10	164	1.3	414.29524607147
10	195	1.4	412.28879179678
10	226	1.5	410.28125338222
10	257	1.6	408.27744722991
10	288	1.7	406.27124428441
10	319	1.8	404.26891177255
10	350	1.9	402.26374740955
10	381	2	400.25937369516
10	412	2.1	398.25586439147
10	476	2.2	396.25683816096
10	540	2.3	394.25108869402
10	604	2.4	392.25058110219
10	668	2.5	390.24463870463
10	732	2.6	388.24208202086
10	796	2.7	386.23482552856
10	860	2.8	384.23214527964
10	924	2.9	382.22773378594
10	988	3	380.2282840761
10	1052	3.1	378.21921800945
10	1161	3.2	376.21664362839
10	1270	3.3	374.20806794687
10	1379	3.4	372.20395613423
10	1488	3.5	370.2042425668
10	1597	3.6	368.19564114714
10	1706	3.7	366.19344680024
10	1815	3.8	364.18682743856
10	1924	3.9	362.18078513705
10	2033	4	360.17811134698
10	2142	4.1	358.17139143703
10	2308	4.2	356.16943420161
10	2474	4.3	354.15950713298
10	2640	4.4	352.1571597101
10	2806	4.5	350.15254183409
10	2972	4.6	348.15215118988
10	3138	4.7	346.1517399402
10	3304	4.8	344.14603054668
10	3470	4.9	342.14691157402
10	3636	5	340.13682351697
10	3802	5.1	338.13022234891
10	4037	5.2	336.12358991855
10	4272	5.3	334.11381666842
10	4507	5.4	332.10245602613
10	4742	5.5	330.09722541553
10	4977	5.6	328.09630392047
10	5212	5.7	326.08592677662
10	5447	5.8	324.08040273973
10	5682	5.9	322.07972307244
10	5917	6	320.07260605517
10	6152	6.1	318.06234103459
10	6468	6.2	316.0605174838
10	6784	6.3	314.05921004463
10	7100	6.4	312.05951003642
10	7416	6.5	310.05640815238
10	7732	6.6	308.05165983044
10	8048	6.7	306.04343410872
10	8364	6.8	304.03205292826
10	8680	6.9	302.02105079872
10	8996	7	300.01002297172
10	9312	7.1	298.00918756956
10	9721	7.2	296.00357430231
10	10130	7.3	293.99459605155
10	10539	7.4	291.99528957866
10	10948	7.5	289.98663518758
10	11357	7.6	287.98470044665
10	11766	7.7	285.97626235004
10	12175	7.8	283.96899403996
10	12584	7.9	281.96963254003
10	12993	8	279.96897115078
10	13402	8.1	277.96035209537
10	13916	8.2	275.96022136719
10	14430	8.3	273.94991383739
10	14944	8.4	271.93958238873
10	15458	8.5	269.93107023581
10	15972	8.6	267.92755192927
10	16486	8.7	265.92299488348
10	17000	8.8	263.92203503013
10	17514	8.9	261.91926195283
10	18028	9	259.90790653742
10	18542	9.1	257.90678227334
10	19173	9.2	255.90091894606
10	19804	9.3	253.89083910257
10	20435	9.4	251.88230716928
10	21066	9.5	249.87922174168
10	21697	9.6	247.86888238147
10	22328	9.7	245.85741952257
10	22959	9.8	243.85533411954
10	23590	9.9	241.85286464073
10	24221	10	239.85224687717
10	24852	10.1	237.84497087052
10	25483	10.2	235.837717342
10	26114	10.3	233.83877927782
10	26745	10.4	231.8326483229
10	27376	10.5	229.8243744972
10	28007	10.6	227.81587701958
10	28638	10.7	225.80914207016
10	29269	10.8	223.80027722334
10	29900	10.9	221.79394761003
10	30531	11	219.78962072108
10	31162	11.1	217.78899802831
10	31793	11.2	215.78589281656
10	32424	11.3	213.77449684308
10	33055	11.4	211.77486272647
10	33686	11.5	209.76573594416
10	34317	11.6	207.76415699064
10	34948	11.7	205.76304983447
10	35579	11.8	203.75735365908
10	36210	11.9	201.75092869208
10	36841	12	199.74403821376
10	37472	12.1	197.73635061721
10	38103	12.2	195.73133750338
10	38734	12.3	193.72383546443
10	39365	12.4	191.71384542615
10	39996	12.5	189.71239063533
10	40627	12.6	187.70417578154
10	41258	12.7	185.69328710465
10	41889	12.8	183.68244100751
10	42520	12.9	181.68143154828
10	43151	13	179.68183141055
10	43782	13.1	177.67304235139
10	44413	13.2	175.66182776785
10	45044	13.3	173.66056641752
10	45675	13.4	171.65501829748
10	46306	13.5	169.64638796542
10	46937	13.6	167.64151020471
10	47568	13.7	165.6324866338
10	48199	13.8	163.62997624602
10	48830	13.9	161.62622580902
10	49461	14	159.62002837724
10	50092	14.1	157.61504866081
10	50723	14.2	155.61351209287
10	51354	14.3	153.61100653621
10	51985	14.4	151.60987498072
10	52616	14.5	149.598527324
10	53247	14.6	147.5894470563
10	53878	14.7	145.58915990521
10	54509	14.8	143.58123230638
10	55140	14.9	141.57675105348
10	55771	15	139.57373478465
10	56402	15.1	137.56743491313
10	57033	15.2	135.56275632549
10	57664	15.3	133.55990650704
10	58295	15.4	131.55809079522
10	58926	15.5	129.55165431436
10	59557	15.6	127.54816977349
10	60188	15.7	125.53751997707
10	60819	15.8	123.53656078947
10	61450	15.9	121.53517904614
10	62081	16	119.53195726702
10	62712	16.1	117.53079131775
10	63343	16.2	115.52905827749
10	63974	16.3	113.52117058277
10	64605	16.4	111.51071292943
10	65236	16.5	109.50379061638
10	65867	16.6	107.49476864646
10	66498	16.7	105.49358140219
10	67129	16.8	103.48352719304
10	67760	16.9	101.47611195885
10	68391	17	99.472174345126
10	69022	17.1	97.462047126395
10	69653	17.2	95.452588799179
10	70284	17.3	93.449848102994
10	70915	17.4	91.443714529357
10	71546	17.5	89.438597724735
10	72177	17.6	87.43243885163
10	72808	17.7	85.42089413965
10	73439	17.8	83.414612885253
10	74070	17.9	81.409264515198
10	74701	18	79.401923251679
10	75332	18.1	77.394869299719
10	75963	18.2	75.385467175458
10	76594	18.3	73.385665974626
10	77225	18.4	71.382515361894
10	77856	18.5	69.38162184911
10	78487	18.6	67.379611611947
10	79118	18.7	65.375667970123
10	79749	18.8	63.367348030996
10	80380	18.9	61.363331431594
10	81011	19	59.35652223591
10	81642	19.1	57.348322380972
10	82273	19.2	55.349114685355
10	82904	19.3	53.342321904874
10	83535	19.4	51.331396242569
10	84166	19.5	49.331168675228
10	84797	19.6	47.32072513861
10	85428	19.7	45.320637061559
10	85942	19.8	43.316480379186
10	86456	19.9	41.304842368077
10	86970	20	39.293972895073
10	87484	20.1	37.286261156523
10	87998	20.2	35.279320671302
10	88512	20.3	33.273910755939
10	89026	20.4	31.267627694916
10	89540	20.5	29.264699093194
10	90054	20.6	27.260399674607
9	102	1.1	23.397598627787
9	133	1.2	23.397598627787
9	164	1.3	23.416312470449
9	195	1.4	23.435039781928
9	226	1.5	23.453777212264
9	257	1.6	23.4724798074
9	288	1.7	23.491204773088
9	319	1.8	23.509893613949
9	350	1.9	23.528608885991
9	381	2	23.547316778487
9	412	2.1	23.566016602975
9	476	2.2	23.584674584543
9	540	2.3	23.603395317673
9	604	2.4	23.622067125579
9	668	2.5	23.640789659434
9	732	2.6	23.659480592611
9	796	2.7	23.678215391616
9	860	2.8	23.696907478092
9	924	2.9	23.715615723203
9	988	3	23.734277657329
9	1052	3.1	23.75302934606
9	1161	3.2	23.771720444415
9	1270	3.3	23.790467556119
9	1379	3.4	23.809173004145
9	1488	3.5	23.827837400996
9	1597	3.6	23.846584752928
9	1706	3.7	23.865272304221
9	1815	3.8	23.884001156544
9	1924	3.9	23.902724622857
9	2033	4	23.921416649049
9	2142	4.1	23.940146439844
9	2308	4.2	23.958831778049
9	2474	4.3	23.977591502972
9	2640	4.4	23.996280483004
9	2806	4.5	24.014990654391
9	2972	4.6	24.033661370762
9	3138	4.7	24.052332279454
9	3304	4.8	24.071052638558
9	3470	4.9	24.089711485738
9	3636	5	24.108472713252
9	3802	5.1	24.127201395765
9	4037	5.2	24.145930370066
9	4272	5.3	24.164688659318
9	4507	5.4	24.183461764551
9	4742	5.5	24.202177654918
9	4977	5.6	24.220853326003
9	5212	5.7	24.239617251719
9	5447	5.8	24.258335880791
9	5682	5.9	24.277009294768
9	5917	6	24.295742791978
9	6152	6.1	24.314505671187
9	6468	6.2	24.333189761642
9	6784	6.3	24.35186903495
9	7100	6.4	24.370533305245
9	7416	6.5	24.389229327068
9	7732	6.6	24.407940715976
9	8048	6.7	24.426684561318
9	8364	6.8	24.445457858245
9	8680	6.9	24.464227617287
9	8996	7	24.482997616176
9	9312	7.1	24.501672483711
9	9721	7.2	24.520391945617
9	10130	7.3	24.539142814715
9	10539	7.4	24.557803411934
9	10948	7.5	24.576551258276
9	11357	7.6	24.595236386528
9	11766	7.7	24.613982214078
9	12175	7.8	24.632717123385
9	12584	7.9	24.651378234201
9	12993	8	24.67005147758
9	13402	8.1	24.688798994115
9	13916	8.2	24.70746728455
9	14430	8.3	24.726230560521
9	14944	8.4	24.744994059739
9	15458	8.5	24.763740578496
9	15972	8.6	24.782440487013
9	16486	8.7	24.801150090639
9	17000	8.8	24.819826119743
9	17514	8.9	24.838519072636
9	18028	9	24.857292129084
9	18542	9.1	24.875969692721
9	19173	9.2	24.894691488572
9	19804	9.3	24.913452639424
9	20435	9.4	24.932199342802
9	21066	9.5	24.950895211028
9	21697	9.6	24.969658784089
9	22328	9.7	24.988432843364
9	22959	9.8	25.007119377826
9	23590	9.9	25.025809497072
9	24221	10	25.044482333269
9	24852	10.1	25.063217314412
9	25483	10.2	25.081952085754
9	26114	10.3	25.100609244418
9	26745	10.4	25.11933353818
9	27376	10.5	25.138077832502
9	28007	10.6	25.156824214287
9	28638	10.7	25.175554145453
9	29269	10.8	25.194303956091
9	29900	10.9	25.213030104038
9	30531	11	25.231737559487
9	31162	11.1	25.250410441691
9	31793	11.2	25.269106494573
9	32424	11.3	25.287879929571
9	33055	11.4	25.306543584865
9	33686	11.5	25.325295840287
9	34317	11.6	25.343977647784
9	34948	11.7	25.362655051744
9	35579	11.8	25.381375287476
9	36210	11.9	25.400102325411
9	36841	12	25.418833708211
9	37472	12.1	25.437572530943
9	38103	12.2	25.456286391296
9	38734	12.3	25.475023482119
9	39365	12.4	25.493783794771
9	39996	12.5	25.512464443392
9	40627	12.6	25.531208187297
9	41258	12.7	25.549976887424
9	41889	12.8	25.568745190132
9	42520	12.9	25.587421682234
9	43151	13	25.606085020385
9	43782	13.1	25.624834123656
9	44413	13.2	25.643605865645
9	45044	13.3	25.662284708782
9	45675	13.4	25.681003562634
9	46306	13.5	25.69975118442
9	46937	13.6	25.71846378145
9	47568	13.7	25.737215073546
9	48199	13.8	25.755905574617
9	48830	13.9	25.774607649732
9	49461	14	25.793332563958
9	50092	14.1	25.812046112595
9	50723	14.2	25.830727524485
9	51354	14.3	25.849417980465
9	51985	14.4	25.868095612157
9	52616	14.5	25.886868596189
9	53247	14.6	25.905620417466
9	53878	14.7	25.924290167879
9	54509	14.8	25.943031230681
9	55140	14.9	25.961740126891
9	55771	15	25.980435349621
9	56402	15.1	25.999161219972
9	57033	15.2	26.017871958013
9	57664	15.3	26.036565627173
9	58295	15.4	26.055249644462
9	58926	15.5	26.073976789861
9	59557	15.6	26.092676383225
9	60188	15.7	26.111442853753
9	60819	15.8	26.130118876643
9	61450	15.9	26.148798843472
9	62081	16	26.16749598434
9	62712	16.1	26.186173937047
9	63343	16.2	26.204857182719
9	63974	16.3	26.223597873073
9	64605	16.4	26.242362550227
9	65236	16.5	26.261094230158
9	65867	16.6	26.279845507311
9	66498	16.7	26.298523658776
9	67129	16.8	26.317284570369
9	67760	16.9	26.336020850997
9	68391	17	26.354724673132
9	69022	17.1	26.373486266163
9	69653	17.2	26.392241616071
9	70284	17.3	26.410934266735
9	70915	17.4	26.429658584939
9	71546	17.5	26.448373413093
9	72177	17.6	26.467097967431
9	72808	17.7	26.485872790685
9	73439	17.8	26.504598487272
9	74070	17.9	26.523315476751
9	74701	18	26.542051066971
9	75332	18.1	26.560783975559
9	75963	18.2	26.579538800895
9	76594	18.3	26.598204015675
9	77225	18.4	26.616900492309
9	77856	18.5	26.635575902221
9	78487	18.6	26.654261735119
9	79118	18.7	26.672965613517
9	79749	18.8	26.691710338241
9	80380	18.9	26.710414897591
9	81011	19	26.729145521737
9	81642	19.1	26.747889125651
9	82273	19.2	26.766548800929
9	82904	19.3	26.785279271863
9	83535	19.4	26.804048317195
9	84166	19.5	26.822717511482
9	84797	19.6	26.841482056877
9	85428	19.7	26.860149949226
9	85942	19.8	26.878855816046
9	86456	19.9	26.897631510111
9	86970	20	26.916400030998
9	87484	20.1	26.93513907906
9	87998	20.2	26.953870928601
9	88512	20.3	26.972588492516
9	89026	20.4	26.991314205965
9	89540	20.5	27.010008610452
9	90054	20.6	27.028715809505
20	540	2.3	4.2835024119991
20	604	2.4	6.2175285390598
20	668	2.5	5.442433913511
20	732	2.6	0.973
20	796	2.7	7.462804577027
20	860	2.8	3.8613233420772
20	924	2.9	3.8727525973689
20	988	3	1.8055877763781
20	1052	3.1	6.152245737492
20	1161	3.2	0.973
20	1270	3.3	6.5306959459295
20	1379	3.4	1.0073249694296
20	1488	3.5	5.3913387204732
20	1597	3.6	6.6692712401178
20	1706	3.7	0.973
20	1815	3.8	4.1041101081416
20	1924	3.9	7.5217823974031
20	2033	4	3.3435439522793
20	2142	4.1	2.571179426159
20	2308	4.2	1.8025383221246
20	2474	4.3	8.0817326160175
20	2640	4.4	0.973
20	2806	4.5	6.7624059501077
20	2972	4.6	3.5188418376159
20	3138	4.7	3.0514268900454
20	3304	4.8	2.1283632781938
20	3470	4.9	3.0562828058366
20	3636	5	9.523757244416
20	3802	5.1	0.973
20	4037	5.2	1.9716405329475
20	4272	5.3	4.1307462870394
20	4507	5.4	6.5418645578033
20	4742	5.5	0.973
20	4977	5.6	4.8265124449791
20	5212	5.7	7.3521364223273
20	5447	5.8	0.973
20	5682	5.9	3.934337163122
20	5917	6	5.2630114367448
20	6152	6.1	4.112264854724
20	6468	6.2	0.91190200336502
20	6784	6.3	0.973
20	7100	6.4	6.3154709662491
20	7416	6.5	3.3231944025022
20	7732	6.6	1.9662332838296
20	8048	6.7	5.846515844148
20	8364	6.8	5.215003663975
20	8680	6.9	4.6322327244649
20	8996	7	0.973
20	9312	7.1	0.973
20	9721	7.2	5.7889181379678
20	10130	7.3	5.4636256779339
20	10539	7.4	0.973
20	10948	7.5	5.5736480740076
20	11357	7.6	1.0335693283519
20	11766	7.7	6.0491025710411
20	12175	7.8	6.2215565647002
20	12584	7.9	1.3672631643647
20	12993	8	0.973
20	13402	8.1	7.2317037694593
20	13916	8.2	2.3975641900772
20	14430	8.3	8.0267286061291
20	14944	8.4	2.7190783982825
20	15458	8.5	0.973
20	15972	8.6	2.0434332674626
20	16486	8.7	1.934236805921
20	17000	8.8	1.5515091435271
20	17514	8.9	7.0201940431459
20	18028	9	4.064068749453
20	18542	9.1	0.973
20	19173	9.2	9.1422520528978
20	19804	9.3	2.7876064365713
20	20435	9.4	4.5978188745012
20	21066	9.5	0.973
20	21697	9.6	4.4738416035404
20	22328	9.7	6.0591584861983
20	22959	9.8	0.973
20	23590	9.9	3.7107801442373
20	24221	10	1.5976443046011
20	24852	10.1	7.8744360166711
20	25483	10.2	5.1065117461146
20	26114	10.3	0.973
20	26745	10.4	6.1937379178292
20	27376	10.5	3.3091287220268
20	28007	10.6	4.2834639483077
20	28638	10.7	0.973
20	29269	10.8	4.9471112690351
20	29900	10.9	4.5369865086108
20	30531	11	0.973
20	31162	11.1	2.4331602191507
20	31793	11.2	6.5863140203954
20	32424	11.3	1.5290087667728
20	33055	11.4	4.4604056977514
20	33686	11.5	6.2843442063996
20	34317	11.6	0.973
20	34948	11.7	0.973
20	35579	11.8	4.9174870960352
20	36210	11.9	6.3922050627211
20	36841	12	0.64690788855613
20	37472	12.1	5.47654380398
20	38103	12.2	0.973
20	38734	12.3	2.7925423210683
20	39365	12.4	6.8117582263209
20	39996	12.5	0.973
20	40627	12.6	8.4558829599394
20	41258	12.7	0.6604317138896
20	41889	12.8	4.6055544821888
20	42520	12.9	2.5047972914493
20	43151	13	1.9004784189543
20	43782	13.1	7.5251272435634
20	44413	13.2	1.7577448775095
20	45044	13.3	0.973
20	45675	13.4	7.5613389468752
20	46306	13.5	2.4335535863007
20	46937	13.6	4.0032597453151
20	47568	13.7	3.684665543159
20	48199	13.8	0.973
20	48830	13.9	4.0916052428897
20	49461	14	1.3087177065565
20	50092	14.1	7.5008713349662
20	50723	14.2	0.973
20	51354	14.3	1.3370454645003
20	51985	14.4	4.0307294985348
20	52616	14.5	6.1381544322402
20	53247	14.6	1.9008331525667
20	53878	14.7	3.7426145618794
20	54509	14.8	4.838437295912
20	55140	14.9	0.973
20	55771	15	1.361577879821
20	56402	15.1	4.6948532959475
20	57033	15.2	7.6166585983063
20	57664	15.3	0.973
20	58295	15.4	8.1774799309819
20	58926	15.5	0.973
20	59557	15.6	0.973
20	60188	15.7	7.842948649767
20	60819	15.8	2.0132655298655
20	61450	15.9	0.973
20	62081	16	6.1956634425945
20	62712	16.1	4.5019856552529
20	63343	16.2	2.8581965557399
20	63974	16.3	1.4271429245043
20	64605	16.4	5.7496923668623
20	65236	16.5	0.973
20	65867	16.6	5.323423790983
20	66498	16.7	0.97525071608021
20	67129	16.8	7.6726431832395
20	67760	16.9	0.973
20	68391	17	2.3337932844798
20	69022	17.1	9.3602663780374
20	69653	17.2	2.6591288104932
20	70284	17.3	0.973
20	70915	17.4	6.7932635303466
20	71546	17.5	1.2614991712798
20	72177	17.6	4.3695247271341
20	72808	17.7	4.7330157315755
20	73439	17.8	0.973
20	74070	17.9	0.973
20	74701	18	8.8028075639217
20	75332	18.1	0.973
20	75963	18.2	7.8011224023527
20	76594	18.3	0.973
20	77225	18.4	4.9638323643203
20	77856	18.5	4.5790730161786
20	78487	18.6	1.6154460811313
20	79118	18.7	2.1945947869384
20	79749	18.8	2.3244786150671
20	80380	18.9	3.1504206992634
20	81011	19	3.0644351080692
20	81642	19.1	6.8083592195079
20	82273	19.2	0.973
20	82904	19.3	3.7149623208265
20	83535	19.4	3.3573406420279
20	84166	19.5	0.973
20	84797	19.6	9.0233611863862
20	85428	19.7	0.973
20	85942	19.8	7.4685849061051
20	86456	19.9	2.3009379561766
20	86970	20	0.65381275431079
20	87484	20.1	2.3630474830139
20	87998	20.2	5.7631726188379
20	88512	20.3	1.5930856828343
20	89026	20.4	5.0196024047143
20	89540	20.5	0.973
20	90054	20.6	3.6422645199189
20	90568	20.7	7.5495417537363
20	90977	20.8	5.8919361928608
20	91386	20.9	1.9073616587474
20	91795	21	3.6481585220337
20	92204	21.1	0.973
20	92613	21.2	2.7444582895544
20	93022	21.3	6.1723804076635
20	93431	21.4	0.973
20	93840	21.5	6.1215117333905
20	94249	21.6	3.8867069096066
20	94658	21.7	2.2545106468653
20	95067	21.8	4.1778383634987
20	95476	21.9	0.973
19	540	2.3	0.37766212191524
19	604	2.4	0.80413834542469
19	668	2.5	0.62739825942668
19	732	2.6	-0.79631633571584
19	796	2.7	1.0733186598772
19	860	2.8	0.27389976526088
19	924	2.9	0.27513737418882
19	988	3	-0.18122442775883
19	1052	3.1	0.77446146051109
19	1161	3.2	-0.75253863919027
19	1270	3.3	0.85700963041319
19	1379	3.4	-0.3584696985034
19	1488	3.5	0.60459845107115
19	1597	3.6	0.87862652714339
19	1706	3.7	-0.75625467123849
19	1815	3.8	0.31941117459898
19	1924	3.9	1.0596899673221
19	2033	4	0.14771988884092
19	2142	4.1	-0.020556690175972
19	2308	4.2	-0.1876814749799
19	2474	4.3	1.171375426124
19	2640	4.4	-1.2436527469806
19	2806	4.5	0.8880718577878
19	2972	4.6	0.18260130054159
19	3138	4.7	0.080850143017805
19	3304	4.8	-0.11910796159981
19	3470	4.9	0.082039899354953
19	3636	5	1.4694261985061
19	3802	5.1	-0.45594633412698
19	4037	5.2	-0.15542857562025
19	4272	5.3	0.30950848654928
19	4507	5.4	0.82334743247738
19	4742	5.5	-0.72878102158835
19	4977	5.6	0.45647334354616
19	5212	5.7	0.99133066162558
19	5447	5.8	-0.7201843500961
19	5682	5.9	0.26212748209542
19	5917	6	0.54379567492347
19	6152	6.1	0.29625664710537
19	6468	6.2	-0.38669483696371
19	6784	6.3	-0.70155962987261
19	7100	6.4	0.76905905478085
19	7416	6.5	0.12849763779819
19	7732	6.6	-0.16117639498425
19	8048	6.7	0.66451769094016
19	8364	6.8	0.52672460445471
19	8680	6.9	0.40067361348839
19	8996	7	-0.53356251686065
19	9312	7.1	-1.0198811112884
19	9721	7.2	0.652065187926
19	10130	7.3	0.57910080435299
19	10539	7.4	-0.94726510612183
19	10948	7.5	0.60466599239039
19	11357	7.6	-0.36150418202819
19	11766	7.7	0.70354636955781
19	12175	7.8	0.73502379067335
19	12584	7.9	-0.29235738865566
19	12993	8	-0.87548117358303
19	13402	8.1	0.95068758027999
19	13916	8.2	-0.073868016905045
19	14430	8.3	1.1099425789161
19	14944	8.4	-0.0092503351863016
19	15458	8.5	-0.81674071308885
19	15972	8.6	-0.14930528963621
19	16486	8.7	-0.17203448863317
19	17000	8.8	-0.25271361139612
19	17514	8.9	0.90161072017299
19	18028	9	0.27538073102662
19	18542	9.1	-0.85948735836155
19	19173	9.2	1.3425451651765
19	19804	9.3	0.0042967561415352
19	20435	9.4	0.38349713704463
19	21066	9.5	-0.60124859160872
19	21697	9.6	0.3586765348723
19	22328	9.7	0.68762428755033
19	22959	9.8	-1.258604768871
19	23590	9.9	0.199693867355
19	24221	10	-0.24532745871536
19	24852	10.1	1.0703307039382
19	25483	10.2	0.48639809409337
19	26114	10.3	-1.2694926860237
19	26745	10.4	0.71791351922428
19	27376	10.5	0.1116505581922
19	28007	10.6	0.31463161125416
19	28638	10.7	-0.63366062167244
19	29269	10.8	0.45471137052729
19	29900	10.9	0.36679641838166
19	30531	11	-0.85648585398371
19	31162	11.1	-0.070976919724366
19	31793	11.2	0.79682237728314
19	32424	11.3	-0.26221850655595
19	33055	11.4	0.35097447603523
19	33686	11.5	0.72786271509468
19	34317	11.6	-0.73339152424072
19	34948	11.7	-0.48070441784724
19	35579	11.8	0.44691260898507
19	36210	11.9	0.75048583081401
19	36841	12	-0.44790436677758
19	37472	12.1	0.55874092560785
19	38103	12.2	-0.8596211771723
19	38734	12.3	0.0018153032537782
19	39365	12.4	0.83735437717376
19	39996	12.5	-1.2224641158872
19	40627	12.6	1.1806589127791
19	41258	12.7	-0.44512981077251
19	41889	12.8	0.37776829342778
19	42520	12.9	-0.060451218703506
19	43151	13	-0.18616466257281
19	43782	13.1	0.98099649196335
19	44413	13.2	-0.21767082884047
19	45044	13.3	-1.2195708128383
19	45675	13.4	0.99220363603393
19	46306	13.5	-0.076120561068045
19	46937	13.6	0.2499672288819
19	47568	13.7	0.18286444406449
19	48199	13.8	-1.0260605266586
19	48830	13.9	0.27102122840169
19	49461	14	-0.3095131022933
19	50092	14.1	0.97739108617006
19	50723	14.2	-0.74220116481143
19	51354	14.3	-0.30346881955655
19	51985	14.4	0.25885665374975
19	52616	14.5	0.69443345044309
19	53247	14.6	-0.18732844788197
19	53878	14.7	0.19565063304057
19	54509	14.8	0.42150663105136
19	55140	14.9	-1.0548755134599
19	55771	15	-0.29838998353924
19	56402	15.1	0.39672210413695
19	57033	15.2	0.99833586726355
19	57664	15.3	-1.221599745477
19	58295	15.4	1.1157624125969
19	58926	15.5	-0.48316957839937
19	59557	15.6	-0.51859428949015
19	60188	15.7	1.0458646849342
19	60819	15.8	-0.16496646998551
19	61450	15.9	-0.94999609255545
19	62081	16	0.7063976969431
19	62712	16.1	0.35199592606631
19	63343	16.2	0.010332924173539
19	63974	16.3	-0.28653429754289
19	64605	16.4	0.60919091407651
19	65236	16.5	-0.95976212842441
19	65867	16.6	0.5233274974481
19	66498	16.7	-0.38029324757797
19	67129	16.8	1.0065892797249
19	67760	16.9	-0.86311538533078
19	68391	17	-0.097391190028198
19	69022	17.1	1.3524673648224
19	69653	17.2	-0.033770667347888
19	70284	17.3	-1.1828710294184
19	70915	17.4	0.82430810170568
19	71546	17.5	-0.32181268393181
19	72177	17.6	0.32189727690522
19	72808	17.7	0.3951577183696
19	73439	17.8	-0.83911328947
19	74070	17.9	-0.57109221155191
19	74701	18	1.2387369556537
19	75332	18.1	-0.76412540921933
19	75963	18.2	1.0290953726182
19	76594	18.3	-1.5143564059409
19	77225	18.4	0.4482854790264
19	77856	18.5	0.36641635713842
19	78487	18.6	-0.24804371382196
19	79118	18.7	-0.12737885157595
19	79749	18.8	-0.1000966745433
19	80380	18.9	0.071438588776402
19	81011	19	0.053369623234047
19	81642	19.1	0.82547715403752
19	82273	19.2	-0.6381126816472
19	82904	19.3	0.18700798163106
19	83535	19.4	0.11237392609527
19	84166	19.5	-0.95498964043529
19	84797	19.6	1.284107984198
19	85428	19.7	-0.90610089417854
19	85942	19.8	0.96178017981895
19	86456	19.9	-0.10745449699012
19	86970	20	-0.4480619221178
19	87484	20.1	-0.093060239295397
19	87998	20.2	0.60906680041633
19	88512	20.3	-0.2536571124919
19	89026	20.4	0.45402577503292
19	89540	20.5	-1.3298236788607
19	90054	20.6	0.1739978367435
19	90568	20.7	0.97866897196923
19	90977	20.8	0.63149142744003
19	91386	20.9	-0.19021202044097
19	91795	21	0.16861385030207
19	92204	21.1	-0.61132077369841
19	92613	21.2	-0.015849490347293
19	93022	21.3	0.68908501251133
19	93431	21.4	-1.2105381546775
19	93840	21.5	0.68212804479991
19	94249	21.6	0.2189274599543
19	94658	21.7	-0.11798054142858
19	95067	21.8	0.27832558751108
19	95476	21.9	-0.95018011748326
18	476	2.2	18.514915656332
18	540	2.3	18.552681868523
18	604	2.4	18.633095703066
18	668	2.5	18.695835529009
18	732	2.6	18.616203895437
18	796	2.7	18.723535761425
18	860	2.8	18.750925737951
18	924	2.9	18.77843947537
18	988	3	18.760317032594
18	1052	3.1	18.837763178645
18	1161	3.2	18.762509314726
18	1270	3.3	18.848210277767
18	1379	3.4	18.812363307917
18	1488	3.5	18.872823153024
18	1597	3.6	18.960685805738
18	1706	3.7	18.885060338614
18	1815	3.8	18.917001456074
18	1924	3.9	19.022970452807
18	2033	4	19.037742441691
18	2142	4.1	19.035686772673
18	2308	4.2	19.016918625175
18	2474	4.3	19.134056167787
18	2640	4.4	19.009690893089
18	2806	4.5	19.098498078868
18	2972	4.6	19.116758208922
18	3138	4.7	19.124843223224
18	3304	4.8	19.112932427064
18	3470	4.9	19.121136417
18	3636	5	19.26807903685
18	3802	5.1	19.222484403438
18	4037	5.2	19.206941545875
18	4272	5.3	19.23789239453
18	4507	5.4	19.320227137778
18	4742	5.5	19.247349035619
18	4977	5.6	19.292996369974
18	5212	5.7	19.392129436136
18	5447	5.8	19.320111001127
18	5682	5.9	19.346323749336
18	5917	6	19.400703316829
18	6152	6.1	19.430328981539
18	6468	6.2	19.391659497843
18	6784	6.3	19.321503534856
18	7100	6.4	19.398409440334
18	7416	6.5	19.411259204114
18	7732	6.6	19.395141564615
18	8048	6.7	19.461593333709
18	8364	6.8	19.514265794155
18	8680	6.9	19.554333155503
18	8996	7	19.500976903817
18	9312	7.1	19.398988792689
18	9721	7.2	19.464195311481
18	10130	7.3	19.522105391916
18	10539	7.4	19.427378881304
18	10948	7.5	19.487845480543
18	11357	7.6	19.451695062341
18	11766	7.7	19.522049699296
18	12175	7.8	19.595552078364
18	12584	7.9	19.566316339498
18	12993	8	19.47876822214
18	13402	8.1	19.573836980168
18	13916	8.2	19.566450178477
18	14430	8.3	19.677444436369
18	14944	8.4	19.67651940285
18	15458	8.5	19.594845331541
18	15972	8.6	19.579914802578
18	16486	8.7	19.562711353714
18	17000	8.8	19.537439992575
18	17514	8.9	19.627601064592
18	18028	9	19.655139137695
18	18542	9.1	19.569190401859
18	19173	9.2	19.703444918376
18	19804	9.3	19.70387459399
18	20435	9.4	19.742224307695
18	21066	9.5	19.682099448534
18	21697	9.6	19.717967102021
18	22328	9.7	19.786729530776
18	22959	9.8	19.660869053889
18	23590	9.9	19.680838440625
18	24221	10	19.656305694753
18	24852	10.1	19.763338765147
18	25483	10.2	19.811978574556
18	26114	10.3	19.685029305954
18	26745	10.4	19.756820657876
18	27376	10.5	19.767985713696
18	28007	10.6	19.799448874821
18	28638	10.7	19.736082812654
18	29269	10.8	19.781553949706
18	29900	10.9	19.818233591545
18	30531	11	19.732585006146
18	31162	11.1	19.725487314174
18	31793	11.2	19.805169551902
18	32424	11.3	19.778947701247
18	33055	11.4	19.81404514885
18	33686	11.5	19.88683142036
18	34317	11.6	19.813492267935
18	34948	11.7	19.765421826151
18	35579	11.8	19.810113087049
18	36210	11.9	19.885161670131
18	36841	12	19.840371233453
18	37472	12.1	19.896245326014
18	38103	12.2	19.810283208296
18	38734	12.3	19.810464738622
18	39365	12.4	19.894200176339
18	39996	12.5	19.77195376475
18	40627	12.6	19.890019656028
18	41258	12.7	19.845506674951
18	41889	12.8	19.883283504294
18	42520	12.9	19.877238382424
18	43151	13	19.858621916166
18	43782	13.1	19.956721565363
18	44413	13.2	19.934954482479
18	45044	13.3	19.812997401195
18	45675	13.4	19.912217764798
18	46306	13.5	19.904605708691
18	46937	13.6	19.929602431579
18	47568	13.7	19.947888875986
18	48199	13.8	19.84528282332
18	48830	13.9	19.87238494616
18	49461	14	19.841433635931
18	50092	14.1	19.939172744548
18	50723	14.2	19.864952628067
18	51354	14.3	19.834605746111
18	51985	14.4	19.860491411486
18	52616	14.5	19.92993475653
18	53247	14.6	19.911201911742
18	53878	14.7	19.930766975046
18	54509	14.8	19.972917638151
18	55140	14.9	19.867430086805
18	55771	15	19.837591088452
18	56402	15.1	19.877263298865
18	57033	15.2	19.977096885592
18	57664	15.3	19.854936911044
18	58295	15.4	19.966513152304
18	58926	15.5	19.918196194464
18	59557	15.6	19.866336765515
18	60188	15.7	19.970923234008
18	60819	15.8	19.954426587009
18	61450	15.9	19.859426977754
18	62081	16	19.930066747448
18	62712	16.1	19.965266340055
18	63343	16.2	19.966299632472
18	63974	16.3	19.937646202718
18	64605	16.4	19.998565294126
18	65236	16.5	19.902589081283
18	65867	16.6	19.954921831028
18	66498	16.7	19.91689250627
18	67129	16.8	20.017551434243
18	67760	16.9	19.93123989571
18	68391	17	19.921500776707
18	69022	17.1	20.056747513189
18	69653	17.2	20.053370446454
18	70284	17.3	19.935083343512
18	70915	17.4	20.017514153683
18	71546	17.5	19.98533288529
18	72177	17.6	20.01752261298
18	72808	17.7	20.057038384817
18	73439	17.8	19.97312705587
18	74070	17.9	19.916017834715
18	74701	18	20.03989153028
18	75332	18.1	19.963478989358
18	75963	18.2	20.06638852662
18	76594	18.3	19.914952886026
18	77225	18.4	19.959781433929
18	77856	18.5	19.996423069643
18	78487	18.6	19.97161869826
18	79118	18.7	19.958880813103
18	79749	18.8	19.948871145649
18	80380	18.9	19.956015004526
18	81011	19	19.96135196685
18	81642	19.1	20.043899682253
18	82273	19.2	19.980088414089
18	82904	19.3	19.998789212252
18	83535	19.4	20.010026604861
18	84166	19.5	19.914527640818
18	84797	19.6	20.042938439238
18	85428	19.7	19.95232834982
18	85942	19.8	20.048506367802
18	86456	19.9	20.037760918103
18	86970	20	19.992954725891
18	87484	20.1	19.983648701961
18	87998	20.2	20.044555382003
18	88512	20.3	20.019189670754
18	89026	20.4	20.064592248257
18	89540	20.5	19.931609880371
18	90054	20.6	19.949009664045
18	90568	20.7	20.046876561242
18	90977	20.8	20.110025703986
18	91386	20.9	20.091004501942
18	91795	21	20.107865886972
18	92204	21.1	20.046733809602
18	92613	21.2	20.045148860568
18	93022	21.3	20.114057361819
18	93431	21.4	19.993003546351
18	93840	21.5	20.061216350831
18	94249	21.6	20.083109096827
18	94658	21.7	20.071311042684
18	95067	21.8	20.099143601435
18	95476	21.9	20.004125589686
17	412	2.1	416.30025728988
17	476	2.2	416.30025728988
17	540	2.3	414.44885913014
17	604	2.4	412.5936845397
17	668	2.5	410.73046897149
17	732	2.6	408.86097973721
17	796	2.7	406.99945326454
17	860	2.8	405.12719414676
17	924	2.9	403.2521961695
17	988	3	401.37444695731
17	1052	3.1	399.49850989796
17	1161	3.2	397.61482861472
17	1270	3.3	395.73867233822
17	1379	3.4	393.85394639778
17	1488	3.5	391.97280497347
17	1597	3.6	390.08561786966
17	1706	3.7	388.18964494385
17	1815	3.8	386.30123418322
17	1924	3.9	384.40962947199
17	2033	4	382.50742839568
17	2142	4.1	380.60375019501
17	2308	4.2	378.70027755087
17	2474	4.3	376.7986816268
17	2640	4.4	374.88537253941
17	2806	4.5	372.98449935209
17	2972	4.6	371.07474589421
17	3138	4.7	369.16316651544
17	3304	4.8	367.25077867603
17	3470	4.9	365.33958185615
17	3636	5	363.42756467866
17	3802	5.1	361.5008539805
17	4037	5.2	359.57870251566
17	4272	5.3	357.65810525817
17	4507	5.4	355.73441307195
17	4742	5.5	353.80248782678
17	4977	5.6	351.87785002416
17	5212	5.7	349.94864771839
17	5447	5.8	348.00953260613
17	5682	5.9	346.07761897403
17	5917	6	344.14308419936
17	6152	6.1	342.20311174228
17	6468	6.2	340.26017686818
17	6784	6.3	338.32110874737
17	7100	6.4	336.38905586893
17	7416	6.5	334.44931278793
17	7732	6.6	332.50828479537
17	8048	6.7	330.56886848545
17	8364	6.8	328.62280733387
17	8680	6.9	326.67147920196
17	8996	7	324.71614453606
17	9312	7.1	322.76614522615
17	9721	7.2	320.82634421283
17	10130	7.3	318.88002287659
17	10539	7.4	316.92791082446
17	10948	7.5	314.98527094551
17	11357	7.6	313.03658471168
17	11766	7.7	311.09151333729
17	12175	7.8	309.13940685414
17	12584	7.9	307.1799505039
17	12993	8	305.22341758005
17	13402	8.1	303.27563902627
17	13916	8.2	301.3183540763
17	14430	8.3	299.36180776922
17	14944	8.4	297.39416259632
17	15458	8.5	295.4266099221
17	15972	8.6	293.46722424297
17	16486	8.7	291.50933154142
17	17000	8.8	289.55315909796
17	17514	8.9	287.59951366313
17	18028	9	285.63685257595
17	18542	9.1	283.67143782038
17	19173	9.2	281.7146175048
17	19804	9.3	279.74437241486
17	20435	9.4	277.77408435953
17	21066	9.5	275.7999615263
17	21697	9.6	273.83185087566
17	22328	9.7	271.86015364062
17	22959	9.8	269.88158050961
17	23590	9.9	267.91559279133
17	24221	10	265.94760823512
17	24852	10.1	263.98207682974
17	25483	10.2	262.00584265728
17	26114	10.3	260.02474474927
17	26745	10.4	258.05634112767
17	27376	10.5	256.08075873306
17	28007	10.6	254.10405988919
17	28638	10.7	252.12421488794
17	29269	10.8	250.15070617323
17	29900	10.9	248.17265057422
17	30531	11	246.19092719606
17	31162	11.1	244.21776824436
17	31793	11.2	242.24531902604
17	32424	11.3	240.26490198595
17	33055	11.4	238.28710699863
17	33686	11.5	236.30580244361
17	34317	11.6	234.31721962864
17	34948	11.7	232.33597035893
17	35579	11.8	230.35952789088
17	36210	11.9	228.37861652221
17	36841	12	226.39020067384
17	37472	12.1	224.40626364318
17	38103	12.2	222.41673948513
17	38734	12.3	220.43581110519
17	39365	12.4	218.45486457314
17	39996	12.5	216.46554491975
[...]
68	99037	23.1	-0.055051425080492
68	99272	23.2	-0.58072487870117
68	99507	23.3	-0.21119623965358
68	99742	23.4	1.7525437090895
68	99977	23.5	-2.0239709981665
68	100212	23.6	0.59516166628036
68	100447	23.7	0.71272742040506
68	100613	23.8	0.65257684635757
68	100779	23.9	-1.274158541883
68	100945	24	-0.89392178695455
68	101111	24.1	1.3853546663118
68	101277	24.2	1.002629950099
68	101443	24.3	-0.54202177568506
68	101609	24.4	-1.1443146462411
68	101775	24.5	1.6884237836324
68	101941	24.6	0.41693374621996
68	102107	24.7	-1.6293206100989
68	102273	24.8	0.43272924508464
68	102439	24.9	-0.037675271589599
68	102605	25	-0.03885280956279
68	102714	25.1	-0.42354439974538
68	102823	25.2	-0.045856037798266
68	102932	25.3	0.40268105831075
68	103041	25.4	1.5544293470134
68	103150	25.5	-1.5039007184215
68	103259	25.6	-0.049531273859991
68	103368	25.7	0.50762205069038
68	103477	25.8	0.41775372686121
68	103586	25.9	0.0077968789122806
68	103695	26	-0.13478047931581
68	103804	26.1	-0.33660285416303
68	103913	26.2	1.3776548323609
68	104022	26.3	-1.720322517996
68	104131	26.4	0.94795663567989
68	104195	26.5	0.92434301899296
68	104259	26.6	0.37762163422904
68	104323	26.7	-1.2542346377779
68	104387	26.8	0.95111345496555
68	104451	26.9	-0.80369873325811
68	104515	27	1.008392293118
68	104579	27.1	-0.058342828203699
68	104643	27.2	-0.17994711316724
68	104707	27.3	-0.84620899123994
68	104771	27.4	-0.11875471659565
68	104835	27.5	0.023551444926753
68	104899	27.6	-0.16730789478689
68	104963	27.7	0.46462445750144
68	104994	27.8	0.044255208648245
68	105004	27.9	-0.028314766040829
68	105014	28	1.1055718546501
68	105024	28.1	-0.57319555592258
68	105034	28.2	0.21035292670131
68	105044	28.3	-0.48767178624402
68	105054	28.4	0.89355801956263
68	105064	28.5	-0.84129209711683
68	105074	28.6	0.76935338487385
68	105084	28.7	-0.18601383808999
68	105094	28.8	-0.011979331518539
68	105104	28.9	-0.41442646537906
68	105114	29	-0.14314760104753
68	105124	29.1	0.81570525295099
67	19173	9.2	18.746523158431
67	19804	9.3	18.755414281515
67	20435	9.4	18.795624878756
67	21066	9.5	18.839670295564
67	21697	9.6	18.819699841433
67	22328	9.7	18.818969623395
67	22959	9.8	18.881069764114
67	23590	9.9	18.913966059999
67	24221	10	18.884544308509
67	24852	10.1	18.95291841561
67	25483	10.2	18.804878463798
67	26114	10.3	18.815275268876
67	26745	10.4	19.021229206223
67	27376	10.5	18.941708230519
67	28007	10.6	19.035098742912
67	28638	10.7	19.009282167477
67	29269	10.8	18.992867190645
67	29900	10.9	18.898823283356
67	30531	11	18.972778925242
67	31162	11.1	19.001608651308
67	31793	11.2	18.981548886323
67	32424	11.3	18.924798090706
67	33055	11.4	19.006961794738
67	33686	11.5	18.907502057708
67	34317	11.6	19.10022375382
67	34948	11.7	18.940681040626
67	35579	11.8	19.012055434409
67	36210	11.9	18.986597884556
67	36841	12	19.098351796156
67	37472	12.1	19.039622297529
67	38103	12.2	19.121667454396
67	38734	12.3	19.194608946233
67	39365	12.4	19.068571331029
67	39996	12.5	19.151435414461
67	40627	12.6	19.131026655354
67	41258	12.7	18.961274924452
67	41889	12.8	19.053056482319
67	42520	12.9	19.143847055943
67	43151	13	19.19201639038
67	43782	13.1	19.285254008186
67	44413	13.2	19.116711564126
67	45044	13.3	19.182685566803
67	45675	13.4	19.151698207723
67	46306	13.5	19.087250267824
67	46937	13.6	19.185198719729
67	47568	13.7	19.324721164376
67	48199	13.8	19.185279377401
67	48830	13.9	19.288365528552
67	49461	14	19.221488759712
67	50092	14.1	19.228295152699
67	50723	14.2	19.094847967702
67	51354	14.3	19.242806800038
67	51985	14.4	19.253750287013
67	52616	14.5	19.20172958852
67	53247	14.6	19.367650819237
67	53878	14.7	19.338689787555
67	54509	14.8	19.328193619022
67	55140	14.9	19.357537681503
67	55771	15	19.306089090631
67	56402	15.1	19.426913948423
67	57033	15.2	19.488670532892
67	57664	15.3	19.286537799112
67	58295	15.4	19.371307069334
67	58926	15.5	19.391278339443
67	59557	15.6	19.390669954438
67	60188	15.7	19.47263128024
67	60819	15.8	19.507313817143
67	61450	15.9	19.401576850664
67	62081	16	19.42038279909
67	62712	16.1	19.480818177947
67	63343	16.2	19.391308169737
67	63974	16.3	19.385679849964
67	64605	16.4	19.322438682721
67	65236	16.5	19.368247914692
67	65867	16.6	19.521186719672
67	66498	16.7	19.390270830836
67	67129	16.8	19.476210348381
67	67760	16.9	19.483188988876
67	68391	17	19.605896141819
67	69022	17.1	19.459719522765
67	69653	17.2	19.618956196305
67	70284	17.3	19.53605025755
67	70915	17.4	19.566113391541
67	71546	17.5	19.442527890715
67	72177	17.6	19.565005061527
67	72808	17.7	19.606362819651
67	73439	17.8	19.472471849323
67	74070	17.9	19.610635803051
67	74701	18	19.617867082423
67	75332	18.1	19.469773084263
67	75963	18.2	19.617483895743
67	76594	18.3	19.429300623159
67	77225	18.4	19.55341859735
67	77856	18.5	19.528928649027
67	78487	18.6	19.479676165832
67	79118	18.7	19.677540408141
67	79749	18.8	19.570041984097
67	80380	18.9	19.682377289054
67	81011	19	19.565508793291
67	81642	19.1	19.594662511855
67	82273	19.2	19.62497975842
67	82904	19.3	19.633932005291
67	83535	19.4	19.533204098357
67	84166	19.5	19.614504404424
67	84797	19.6	19.538045228612
67	85428	19.7	19.62534225486
67	85942	19.8	19.6657679209
67	86456	19.9	19.610032061122
67	86970	20	19.625197285132
67	87484	20.1	19.684654423925
67	87998	20.2	19.564085023731
67	88512	20.3	19.652188549183
67	89026	20.4	19.682709475006
67	89540	20.5	19.712511877699
67	90054	20.6	19.70112726229
67	90568	20.7	19.699297647555
67	90977	20.8	19.693522663206
67	91386	20.9	19.732263755117
67	91795	21	19.622040917746
67	92204	21.1	19.635535972375
67	92613	21.2	19.796347403548
67	93022	21.3	19.837556970595
67	93431	21.4	19.834402249801
67	93840	21.5	19.799062208174
67	94249	21.6	19.621177842966
67	94658	21.7	19.660306284458
67	95067	21.8	19.646272593229
67	95476	21.9	19.836578291295
67	95885	22	19.709553637293
67	96201	22.1	19.704689673963
67	96517	22.2	19.709109412942
67	96833	22.3	19.752821847001
67	97149	22.4	19.830299605997
67	97465	22.5	19.767400122452
67	97781	22.6	19.91306219499
67	98097	22.7	19.715702712541
67	98332	22.8	19.842448555901
67	98567	22.9	19.815417256415
67	98802	23	19.837987236773
67	99037	23.1	19.832482094265
67	99272	23.2	19.774409606395
67	99507	23.3	19.75328998243
67	99742	23.4	19.928544353339
67	99977	23.5	19.726147253522
67	100212	23.6	19.78566342015
67	100447	23.7	19.856936162191
67	100613	23.8	19.922193846827
67	100779	23.9	19.794777992638
67	100945	24	19.705385813943
67	101111	24.1	19.843921280574
67	101277	24.2	19.944184275584
67	101443	24.3	19.889982098015
67	101609	24.4	19.775550633391
67	101775	24.5	19.944393011754
67	101941	24.6	19.986086386376
67	102107	24.7	19.823154325367
67	102273	24.8	19.866427249875
67	102439	24.9	19.862659722716
67	102605	25	19.85877444176
67	102714	25.1	19.816420001785
67	102823	25.2	19.811834398005
67	102932	25.3	19.852102503837
67	103041	25.4	20.007545438538
67	103150	25.5	19.857155366696
67	103259	25.6	19.85220223931
67	103368	25.7	19.902964444379
67	103477	25.8	19.944739817065
67	103586	25.9	19.945519504956
67	103695	26	19.932041457025
67	103804	26.1	19.898381171608
67	103913	26.2	20.036146654844
67	104022	26.3	19.864114403045
67	104131	26.4	19.958910066613
67	104195	26.5	20.051344368512
67	104259	26.6	20.089106531935
67	104323	26.7	19.963683068157
67	104387	26.8	20.058794413654
67	104451	26.9	19.978424540328
67	104515	27	20.07926376964
67	104579	27.1	20.073429486819
67	104643	27.2	20.055434775503
67	104707	27.3	19.970813876379
67	104771	27.4	19.958938404719
67	104835	27.5	19.961293549212
67	104899	27.6	19.944562759733
67	104963	27.7	19.991025205483
67	104994	27.8	19.995450726348
67	105004	27.9	19.992619249744
67	105014	28	20.103176435209
67	105024	28.1	20.045856879617
67	105034	28.2	20.066892172287
67	105044	28.3	20.018124993662
67	105054	28.4	20.107480795619
67	105064	28.5	20.023351585907
67	105074	28.6	20.100286924394
67	105084	28.7	20.081685540585
67	105094	28.8	20.080487607433
67	105104	28.9	20.039044960896
67	105114	29	20.024730200791
67	105124	29.1	20.106300726086
66	18542	9.1	416.30025728988
66	19173	9.2	416.30025728988
66	19804	9.3	414.42569954836
66	20435	9.4	412.55025273939
66	21066	9.5	410.67078507356
66	21697	9.6	408.78691308825
66	22328	9.7	406.9050380476
66	22959	9.8	405.02323602507
66	23590	9.9	403.13522430176
66	24221	10	401.24392311482
66	24852	10.1	399.3555639546
66	25483	10.2	397.46036772861
66	26114	10.3	395.57997475096
66	26745	10.4	393.69854214524
66	27376	10.5	391.79651518481
66	28007	10.6	389.90243992078
66	28638	10.7	387.99902607665
66	29269	10.8	386.09819375982
66	29900	10.9	384.19900285787
66	30531	11	382.3092158722
66	31162	11.1	380.41203369544
66	31793	11.2	378.51196869151
66	32424	11.3	376.61390956289
66	33055	11.4	374.72152522753
66	33686	11.5	372.82092493627
66	34317	11.6	370.93027011695
66	34948	11.7	369.02034410027
66	35579	11.8	367.12637155005
66	36210	11.9	365.22526192052
66	36841	12	363.32669791754
66	37472	12.1	361.41695908719
66	38103	12.2	359.51309291042
66	38734	12.3	357.60102263188
66	39365	12.4	355.68165857213
66	39996	12.5	353.77489763805
66	40627	12.6	351.85985071368
66	41258	12.7	349.94684456225
66	41889	12.8	348.05081272753
66	42520	12.9	346.14560320006
66	43151	13	344.23131507325
66	43782	13.1	342.31221025601
66	44413	13.2	340.38378214736
66	45044	13.3	338.47220743284
66	45675	13.4	336.55403565088
66	46306	13.5	334.6389624485
66	46937	13.6	332.73033371498
66	47568	13.7	330.81191063041
66	48199	13.8	328.87953600525
66	48830	13.9	326.96110485532
66	49461	14	325.03236561033
66	50092	14.1	323.11031370484
66	50723	14.2	321.18758119439
66	51354	14.3	319.27819272921
66	51985	14.4	317.35400912724
66	52616	14.5	315.42873123177
66	53247	14.6	313.50865514372
66	53878	14.7	311.57198776965
66	54509	14.8	309.63821635264
66	55140	14.9	307.70549449954
66	55771	15	305.76983838822
66	56402	15.1	303.83932687644
66	57033	15.2	301.89673348843
66	57664	15.3	299.94796475352
66	58295	15.4	298.01940827226
66	58926	15.5	296.08237529162
66	59557	15.6	294.14334528473
66	60188	15.7	292.20437611327
66	60819	15.8	290.25721122272
66	61450	15.9	288.30657825344
66	62081	16	286.36651844738
66	62712	16.1	284.42457814136
66	63343	16.2	282.47659460233
66	63974	16.3	280.53756161256
66	64605	16.4	278.59909142638
66	65236	16.5	276.66694503787
66	65867	16.6	274.73021795726
66	66498	16.7	272.77819776772
66	67129	16.8	270.83926850661
66	67760	16.9	268.8917457273
66	68391	17	266.94352511914
66	69022	17.1	264.98303441474
66	69653	17.2	263.03716063479
66	70284	17.3	261.07536399083
66	70915	17.4	259.12185752248
66	71546	17.5	257.16534489241
66	72177	17.6	255.22119018894
66	72808	17.7	253.26478838627
66	73439	17.8	251.30425101644
66	74070	17.9	249.35710206817
66	74701	18	247.39613742156
66	75332	18.1	245.43444968348
66	75963	18.2	243.48757059811
66	76594	18.3	241.52592117677
66	77225	18.4	239.58308913333
66	77856	18.5	237.62784591862
66	78487	18.6	235.67505157521
66	79118	18.7	233.72718223163
66	79749	18.8	231.75952746204
66	80380	18.9	229.80262199252
66	81011	19	227.83448355923
66	81642	19.1	225.87803138593
66	82273	19.2	223.91866398785
66	82904	19.3	221.95626501806
66	83535	19.4	219.99297086875
66	84166	19.5	218.03974900197
66	84797	19.6	216.07839751473
66	85428	19.7	214.12469155935
66	85942	19.8	212.16225634174
66	86456	19.9	210.19577876148
66	86970	20	208.23487448601
66	87484	20.1	206.27245376464
66	87998	20.2	204.30408762936
66	88512	20.3	202.34777782583
66	89026	20.4	200.38265811423
66	89540	20.5	198.41448646402
66	90054	20.6	196.4433347239
66	90568	20.7	194.47332138788
66	90977	20.8	192.5034910041
66	91386	20.9	190.53423808962
66	91795	21	188.5611112614
66	92204	21.1	186.59900616085
66	92613	21.2	184.63555162292
66	93022	21.3	182.65601675315
66	93431	21.4	180.67236113458
66	93840	21.5	178.68902097217
66	94249	21.6	176.70921463563
66	94658	21.7	174.74719583821
66	95067	21.8	172.78126439403
66	95476	21.9	170.81673624818
66	95885	22	168.8331784926
66	96201	22.1	166.86232256159
66	96517	22.2	164.89195300237
66	96833	22.3	162.92114149156
66	97149	22.4	160.94595895786
66	97465	22.5	158.96302903913
66	97781	22.6	156.98638875143
66	98097	22.7	154.99518299134
66	98332	22.8	153.02371218382
66	98567	22.9	151.03956743139
66	98802	23	149.05812567254
66	99037	23.1	147.07442702952
66	99272	23.2	145.09127887297
66	99507	23.3	143.11393767224
66	99742	23.4	141.13870832737
66	99977	23.5	139.14595442954
66	100212	23.6	137.17343922062
66	100447	23.7	135.19497269529
66	100613	23.8	133.20937925532
66	100779	23.9	131.2172603761
66	100945	24	129.23788243951
66	101111	24.1	127.26744326981
66	101277	24.2	125.28315125234
66	101443	24.3	123.28883344119
66	101609	24.4	121.29993557435
66	101775	24.5	119.32248027668
66	101941	24.6	117.32814159296
66	102107	24.7	115.32963378213
66	102273	24.8	113.34741835541
66	102439	24.9	111.36087585456
66	102605	25	109.37471008741
66	102714	25.1	107.38893282876
66	102823	25.2	105.40739080043
66	102932	25.3	103.42630730934
66	103041	25.4	101.44119721082
66	103150	25.5	99.440543603027
66	103259	25.6	97.454928243713
66	103368	25.7	95.469808172149
66	103477	25.8	93.479612136169
66	103586	25.9	91.485238773672
66	103695	26	89.49078744632
66	103804	26.1	87.497683855766
66	103913	26.2	85.50794612394
66	104022	26.3	83.504432538804
66	104131	26.4	81.518121310963
66	104195	26.5	79.522330994999
66	104259	26.6	77.517297715167
66	104323	26.7	75.508488409499
66	104387	26.8	73.512220817461
66	104451	26.9	71.506442570699
66	104515	27	69.508700905812
66	104579	27.1	67.500875826718
66	104643	27.2	65.493634146473
66	104707	27.3	63.488191846578
66	104771	27.4	61.491211209691
66	104835	27.5	59.49541806006
66	104899	27.6	57.49938940786
66	104963	27.7	55.505033750204
66	104994	27.8	53.506032082371
66	105004	27.9	51.506587884778
66	105014	28	49.50742682056
66	105024	28.1	47.497210595546
66	105034	28.2	45.49272603692
66	105044	28.3	43.486138055148
66	105054	28.4	41.484426545212
66	105064	28.5	39.473779905873
66	105074	28.6	37.47154576308
66	105084	28.7	35.46161847457
66	105094	28.8	33.453551230599
66	105104	28.9	31.4456037739
66	105114	29	29.441800372781
66	105124	29.1	27.439428375455
65	18542	9.1	23.397598627787
65	19173	9.2	23.397598627787
65	19804	9.3	23.415094878339
65	20435	9.4	23.432599427033
65	21066	9.5	23.450141504535
65	21697	9.6	23.467724689908
65	22328	9.7	23.485289236728
65	22959	9.8	23.502853102031
65	23590	9.9	23.520474925795
65	24221	10	23.538127451882
65	24852	10.1	23.55575251846
65	25483	10.2	23.573441399032
65	26114	10.3	23.590992112965
65	26745	10.4	23.608552530303
65	27376	10.5	23.626305165774
65	28007	10.6	23.643983583808
65	28638	10.7	23.661749163807
65	29269	10.8	23.67949064903
65	29900	10.9	23.69721681405
65	30531	11	23.714855207287
65	31162	11.1	23.7325626238
65	31793	11.2	23.750296947282
65	32424	11.3	23.768012548856
65	33055	11.4	23.785675184547
65	33686	11.5	23.803414504152
65	34317	11.6	23.821060997344
65	34948	11.7	23.838887358935
65	35579	11.8	23.856564818286
65	36210	11.9	23.874308891817
65	36841	12	23.892029205653
65	37472	12.1	23.909853820134
65	38103	12.2	23.927623621995
65	38734	12.3	23.945469997129
65	39365	12.4	23.963384449027
65	39996	12.5	23.981181269207
65	40627	12.6	23.99905542697
65	41258	12.7	24.016910537106
65	41889	12.8	24.034607216861
65	42520	12.9	24.052389556934
65	43151	13	24.070256632433
65	43782	13.1	24.088168664681
65	44413	13.2	24.106167716197
65	45044	13.3	24.124009465967
65	45675	13.4	24.141912789697
65	46306	13.5	24.159787192726
65	46937	13.6	24.177601446079
65	47568	13.7	24.195507115351
65	48199	13.8	24.213543001818
65	48830	13.9	24.231448746368
65	49461	14	24.249450701886
65	50092	14.1	24.267390240886
65	50723	14.2	24.285336132336
65	51354	14.3	24.303157476671
65	51985	14.4	24.321116911935
65	52616	14.5	24.339086560825
65	53247	14.6	24.357007658464
65	53878	14.7	24.375083611453
65	54509	14.8	24.393132534926
65	55140	14.9	24.411171662256
65	55771	15	24.429238176589
65	56402	15.1	24.447256673622
65	57033	15.2	24.465387937271
65	57664	15.3	24.483576838737
65	58295	15.4	24.501577088423
65	58926	15.5	24.519656453814
65	59557	15.6	24.53775445852
65	60188	15.7	24.555851895416
65	60819	15.8	24.574025827345
65	61450	15.9	24.592232128708
65	62081	16	24.61033974508
65	62712	16.1	24.628464913165
65	63343	16.2	24.646646485978
65	63974	16.3	24.664744518525
65	64605	16.4	24.682837298124
65	65236	16.5	24.700871054336
65	65867	16.6	24.718947564598
65	66498	16.7	24.737166813631
65	67129	16.8	24.755263878022
65	67760	16.9	24.773441150318
65	68391	17	24.791624935824
65	69022	17.1	24.809923244704
65	69653	17.2	24.828085126006
65	70284	17.3	24.846395623919
65	70915	17.4	24.864628745186
65	71546	17.5	24.88288992457
65	72177	17.6	24.901035760812
65	72808	17.7	24.919295905784
65	73439	17.8	24.937594650217
65	74070	17.9	24.955768433348
65	74701	18	24.974071165784
65	75332	18.1	24.99238064722
65	75963	18.2	25.010551911576
65	76594	18.3	25.028861035382
65	77225	18.4	25.046994526529
65	77856	18.5	25.06524385778
65	78487	18.6	25.083470332404
65	79118	18.7	25.10165083937
65	79749	18.8	25.120016014304
65	80380	18.9	25.138280860269
65	81011	19	25.156650549495
65	81642	19.1	25.174911164603
65	82273	19.2	25.193198989064
65	82904	19.3	25.211515108807
65	83535	19.4	25.229839583739
65	84166	19.5	25.248070048667
65	84797	19.6	25.266376391694
65	85428	19.7	25.284611374881
65	85942	19.8	25.302927832944
65	86456	19.9	25.32128202054
65	86970	20	25.3395841895
65	87484	20.1	25.357900512262
65	87998	20.2	25.376272326753
65	88512	20.3	25.394531613048
65	89026	20.4	25.412873126929
65	89540	20.5	25.431243126187
65	90054	20.6	25.449640940219
65	90568	20.7	25.468028128916
65	90977	20.8	25.486413610022
65	91386	20.9	25.504793701298
65	91795	21	25.523209949883
65	92204	21.1	25.541523326787
65	92613	21.2	25.559849298711
65	93022	21.3	25.578325356978
65	93431	21.4	25.596839876399
65	93840	21.5	25.615351451498
65	94249	21.6	25.63383004351
65	94658	21.7	25.6521426149
65	95067	21.8	25.670491705116
65	95476	21.9	25.688827697598
65	95885	22	25.707341303611
65	96201	22.1	25.725736356698
65	96517	22.2	25.744126870216
65	96833	22.3	25.762521508706
65	97149	22.4	25.780956944291
65	97465	22.5	25.799464690367
65	97781	22.6	25.81791373195
65	98097	22.7	25.836498720882
65	98332	22.8	25.85489951294
65	98567	22.9	25.873418597709
65	98802	23	25.891912453992
65	99037	23.1	25.910427374983
65	99272	23.2	25.928937157989
65	99507	23.3	25.947392741569
65	99742	23.4	25.965828614068
65	99977	23.5	25.984428052598
65	100212	23.6	26.002838592613
65	100447	23.7	26.02130467945
65	100613	23.8	26.039837285594
65	100779	23.9	26.058430797156
65	100945	24	26.076905390681
65	101111	24.1	26.095296553912
65	101277	24.2	26.113817013184
65	101443	24.3	26.132431048554
65	101609	24.4	26.150994496683
65	101775	24.5	26.16945114519
65	101941	24.6	26.188065375375
65	102107	24.7	26.206718518254
65	102273	24.8	26.225219595593
65	102439	24.9	26.243761059831
65	102605	25	26.262299007811
65	102714	25.1	26.280833329634
65	102823	25.2	26.299328121786
65	102932	25.3	26.317818634164
65	103041	25.4	26.336346729025
65	103150	25.5	26.355019899775
65	103259	25.6	26.373552710505
65	103368	25.7	26.392080898449
65	103477	25.8	26.410656463085
65	103586	25.9	26.429271016945
65	103695	26	26.447886298493
65	103804	26.1	26.466489000892
65	103913	26.2	26.485060287931
65	104022	26.3	26.50376015238
65	104131	26.4	26.522299458023
65	104195	26.5	26.540927237068
65	104259	26.6	26.559641285641
65	104323	26.7	26.578390577884
65	104387	26.8	26.597022811602
65	104451	26.9	26.615743813351
65	104515	27	26.634389805379
65	104579	27.1	26.653129911309
65	104643	27.2	26.671864572065
65	104707	27.3	26.690582438241
65	104771	27.4	26.709221327189
65	104835	27.5	26.727849132682
65	104899	27.6	26.746479136247
65	104963	27.7	26.765093524858
65	104994	27.8	26.783751277169
65	105004	27.9	26.802413159846
65	105014	28	26.821072399889
65	105024	28.1	26.839834823663
65	105034	28.2	26.858543750728
65	105044	28.3	26.877272310166
65	105054	28.4	26.895955354883
65	105064	28.5	26.914721795944
65	105074	28.6	26.933409718674
65	105084	28.7	26.952169445649
65	105094	28.8	26.970911811833
65	105104	28.9	26.989653059978
65	105114	29	27.008355629435
65	105124	29.1	27.027044838835
