version 2
run General-7-20161208-15:07:08-756
attr configname General
attr datetime 20161208-15:07:08
attr experiment General
attr inifile omnetpp.ini
attr iterationvars ""
attr iterationvars2 $repetition=7
attr measurement ""
attr network com.liborio.locvanet.LocScenario
attr processid 756
attr repetition 7
attr replication #7
attr resultdir results
attr runnumber 7
attr seedset 7
param **.coreDebug false
param **.debug false
param *.**.nic.mac1609_4.bitrate 18Mbps
param *.**.nic.mac1609_4.txPower 20mW
param *.**.nic.mac1609_4.useServiceChannel false
param *.**.nic.phy80211p.analogueModels "xmldoc(\"config_trgi.xml\")"
param *.**.nic.phy80211p.decider "xmldoc(\"config_trgi.xml\")"
param *.**.nic.phy80211p.sensitivity -89dBm
param *.**.nic.phy80211p.thermalNoise -110dBm
param *.**.nic.phy80211p.usePropagationDelay true
param *.**.nic.phy80211p.useThermalNoise true
param *.annotations.draw false
param *.connectionManager.alpha 2.0
param *.connectionManager.carrierFrequency "5.890e9 Hz"
param *.connectionManager.pMax 20mW
param *.connectionManager.sat -89dBm
param *.connectionManager.sendDirect true
param *.manager.autoShutdown true
param *.manager.host "\"localhost\""
param *.manager.launchConfig "xmldoc(\"tunnel.launchd.xml\")"
param *.manager.margin 25
param *.manager.moduleDisplayString "\"\""
param *.manager.moduleName "\"node\""
param *.manager.moduleType "\"org.car2x.veins.nodes.Car\""
param *.manager.port 9999
param *.manager.updateInterval 0.1s
param *.node[*].appl.beaconInterval 0.1s
param *.node[*].appl.beaconPriority 3
param *.node[*].appl.dataOnSch false
param *.node[*].appl.dataPriority 2
param *.node[*].appl.debug false
param *.node[*].appl.headerLength "256 bit"
param *.node[*].appl.maxOffset 0.005s
param *.node[*].appl.sendBeacons true
param *.node[*].appl.sendData true
param *.node[*].applType "\"LocAppCom\""
param *.node[*].mobilityType "\"TraCIMobility\""
param *.node[*].mobilityType.debug true
param *.node[*].veinsmobility.x 0
param *.node[*].veinsmobility.y 0
param *.node[*].veinsmobility.z 1.895
param *.node[*].veinsmobilityType "\"org.car2x.veins.modules.mobility.traci.TraCIMobility\""
param *.node[*].veinsmobilityType.debug true
param *.playgroundSizeX 5000m
param *.playgroundSizeY 5000m
param *.playgroundSizeZ 50m
param *.world.use2D false
param *.world.useTorus false

vector 2  LocScenario.node[0].veinsmobility  posx  ETV
vector 3  LocScenario.node[0].veinsmobility  posy  ETV
vector 4  LocScenario.node[0].veinsmobility  speed  ETV
vector 5  LocScenario.node[0].veinsmobility  acceleration  ETV
vector 6  LocScenario.node[0].veinsmobility  co2emission  ETV
vector 9  LocScenario.node[1].veinsmobility  posx  ETV
vector 10  LocScenario.node[1].veinsmobility  posy  ETV
vector 11  LocScenario.node[1].veinsmobility  speed  ETV
vector 12  LocScenario.node[1].veinsmobility  acceleration  ETV
vector 13  LocScenario.node[1].veinsmobility  co2emission  ETV
vector 16  LocScenario.node[2].veinsmobility  posx  ETV
vector 17  LocScenario.node[2].veinsmobility  posy  ETV
vector 18  LocScenario.node[2].veinsmobility  speed  ETV
vector 19  LocScenario.node[2].veinsmobility  acceleration  ETV
vector 20  LocScenario.node[2].veinsmobility  co2emission  ETV
vector 23  LocScenario.node[3].veinsmobility  posx  ETV
vector 24  LocScenario.node[3].veinsmobility  posy  ETV
vector 25  LocScenario.node[3].veinsmobility  speed  ETV
vector 26  LocScenario.node[3].veinsmobility  acceleration  ETV
vector 27  LocScenario.node[3].veinsmobility  co2emission  ETV
vector 30  LocScenario.node[4].veinsmobility  posx  ETV
vector 31  LocScenario.node[4].veinsmobility  posy  ETV
vector 32  LocScenario.node[4].veinsmobility  speed  ETV
vector 33  LocScenario.node[4].veinsmobility  acceleration  ETV
vector 34  LocScenario.node[4].veinsmobility  co2emission  ETV
vector 37  LocScenario.node[5].veinsmobility  posx  ETV
vector 38  LocScenario.node[5].veinsmobility  posy  ETV
vector 39  LocScenario.node[5].veinsmobility  speed  ETV
vector 40  LocScenario.node[5].veinsmobility  acceleration  ETV
vector 41  LocScenario.node[5].veinsmobility  co2emission  ETV
vector 44  LocScenario.node[6].veinsmobility  posx  ETV
vector 45  LocScenario.node[6].veinsmobility  posy  ETV
vector 46  LocScenario.node[6].veinsmobility  speed  ETV
vector 47  LocScenario.node[6].veinsmobility  acceleration  ETV
vector 48  LocScenario.node[6].veinsmobility  co2emission  ETV
vector 51  LocScenario.node[7].veinsmobility  posx  ETV
vector 52  LocScenario.node[7].veinsmobility  posy  ETV
vector 53  LocScenario.node[7].veinsmobility  speed  ETV
vector 54  LocScenario.node[7].veinsmobility  acceleration  ETV
vector 55  LocScenario.node[7].veinsmobility  co2emission  ETV
vector 58  LocScenario.node[8].veinsmobility  posx  ETV
vector 59  LocScenario.node[8].veinsmobility  posy  ETV
vector 60  LocScenario.node[8].veinsmobility  speed  ETV
vector 61  LocScenario.node[8].veinsmobility  acceleration  ETV
vector 62  LocScenario.node[8].veinsmobility  co2emission  ETV
vector 65  LocScenario.node[9].veinsmobility  posx  ETV
vector 66  LocScenario.node[9].veinsmobility  posy  ETV
vector 67  LocScenario.node[9].veinsmobility  speed  ETV
vector 68  LocScenario.node[9].veinsmobility  acceleration  ETV
vector 69  LocScenario.node[9].veinsmobility  co2emission  ETV
6	22	0.3	0.973
6	32	0.4	5.7259921396439
6	42	0.5	2.0731271976756
6	52	0.6	0.973
6	62	0.7	4.4163462322877
6	72	0.8	4.5071586999406
6	82	0.9	0.973
6	92	1	7.0414453317773
6	102	1.1	1.3739815989764
6	133	1.2	3.0574113934696
6	164	1.3	5.5349207686417
6	195	1.4	1.5916081379354
6	226	1.5	1.3683861919973
6	257	1.6	1.6933073292585
6	288	1.7	2.0355216700414
6	319	1.8	5.483658564127
6	350	1.9	4.8164446040687
6	381	2	1.4288911431221
6	412	2.1	0.973
6	476	2.2	5.6988714884571
6	540	2.3	4.0202901202973
6	604	2.4	0.69838221246096
6	668	2.5	1.243410735693
6	732	2.6	4.7235853253807
6	796	2.7	0.973
6	860	2.8	5.4243368006709
6	924	2.9	3.8691449470632
6	988	3	2.1302229862353
6	1052	3.1	2.7294281049184
6	1161	3.2	2.8559695276936
6	1270	3.3	0.55534406647195
6	1379	3.4	6.1223636529383
6	1488	3.5	3.0660196208142
6	1597	3.6	2.3418271437783
6	1706	3.7	2.7160428023792
6	1815	3.8	0.62848794100526
6	1924	3.9	1.6416853538613
6	2033	4	3.8546198061
6	2142	4.1	4.8021830151691
6	2308	4.2	3.8805421227721
6	2474	4.3	3.8823545348561
6	2640	4.4	0.973
6	2806	4.5	2.8295669594734
6	2972	4.6	3.0316407167203
6	3138	4.7	0.83437408951309
6	3304	4.8	4.7383322744257
6	3470	4.9	6.1565214080425
6	3636	5	3.0547263073065
6	3802	5.1	2.5701812525973
6	4037	5.2	1.797838846268
6	4272	5.3	1.8953189388065
6	4507	5.4	2.3555486718396
6	4742	5.5	0.973
6	4977	5.6	2.488814105821
6	5212	5.7	6.9962153171389
6	5447	5.8	0.973
6	5682	5.9	6.9143989999171
6	5917	6	0.57080233187437
6	6152	6.1	0.973
6	6468	6.2	5.0738722718289
6	6784	6.3	3.1986073878944
6	7100	6.4	3.918471570817
6	7416	6.5	0.85030814542131
6	7732	6.6	0.85495488533299
6	8048	6.7	4.9228367353816
6	8364	6.8	0.59526937883965
6	8680	6.9	2.6056021617178
6	8996	7	4.3569457670925
6	9312	7.1	2.5667129179966
6	9721	7.2	7.2252830668977
6	10130	7.3	2.7381437362026
6	10539	7.4	2.1287128526885
6	10948	7.5	0.973
6	11357	7.6	3.226958368225
6	11766	7.7	4.8106808060065
6	12175	7.8	4.9187601324951
6	12584	7.9	0.973
6	12993	8	5.9216469141108
6	13402	8.1	0.973
6	13916	8.2	6.1702070683929
6	14430	8.3	3.323810934419
6	14944	8.4	0.973
6	15458	8.5	5.2376623445426
6	15972	8.6	4.4027280916245
6	16486	8.7	3.7170890884278
6	17000	8.8	3.5070022663885
6	17514	8.9	1.9145374039637
6	18028	9	3.4169158271918
6	18542	9.1	1.7601817953605
6	19173	9.2	0.973
6	19804	9.3	7.4787435304344
6	20435	9.4	2.3009185657691
6	21066	9.5	0.973
6	21697	9.6	5.1584464004176
6	22328	9.7	2.1312206862261
6	22959	9.8	4.3990247736671
6	23590	9.9	1.2733030365993
6	24221	10	4.0887877949544
6	24852	10.1	4.2160800847393
6	25483	10.2	2.2481981964776
6	26114	10.3	0.973
6	26745	10.4	4.009711637495
6	27376	10.5	1.1117169922856
6	28007	10.6	7.4044225254502
6	28638	10.7	0.973
6	29269	10.8	8.2534299658413
6	29900	10.9	1.3765530210297
6	30531	11	4.625212867159
6	31162	11.1	0.973
6	31793	11.2	0.973
6	32424	11.3	3.6457286669447
6	33055	11.4	3.0173960229809
6	33686	11.5	2.1952255796567
6	34317	11.6	6.2715214728859
6	34948	11.7	2.0254415808761
6	35579	11.8	0.973
6	36210	11.9	5.601221725572
6	36841	12	4.9956664392982
6	37472	12.1	0.7770463333988
6	38103	12.2	4.942078066508
6	38734	12.3	0.973
6	39365	12.4	4.1063144311429
6	39996	12.5	7.7517876072771
6	40627	12.6	0.973
6	41258	12.7	5.8503670009834
6	41889	12.8	0.973
6	42520	12.9	2.1505107876142
6	43151	13	2.8809803401208
6	43782	13.1	6.7529832206759
6	44413	13.2	0.973
6	45044	13.3	5.5191164314263
6	45675	13.4	3.278876267296
6	46306	13.5	0.973
6	46937	13.6	3.1370370715345
6	47568	13.7	2.7134373839631
6	48199	13.8	3.1076224618072
6	48830	13.9	4.3621579500504
6	49461	14	4.7546598649111
6	50092	14.1	0.973
6	50723	14.2	1.8211969356876
6	51354	14.3	3.5889013077079
6	51985	14.4	2.4721570457777
6	52616	14.5	7.6064073679332
6	53247	14.6	3.0554273647893
6	53878	14.7	0.973
6	54509	14.8	2.3172089231527
6	55140	14.9	4.5922919186138
6	55771	15	1.6681016964045
6	56402	15.1	3.695832155971
6	57033	15.2	3.3707313622943
6	57664	15.3	2.8855164702538
6	58295	15.4	2.3228064280512
6	58926	15.5	4.0032283705419
6	59557	15.6	1.3565003191486
6	60188	15.7	5.5448681614759
6	60819	15.8	0.973
6	61450	15.9	1.6832296314404
6	62081	16	4.5180252357503
6	62712	16.1	4.3949856748678
6	63343	16.2	3.5049023851363
6	63974	16.3	0.973
6	64605	16.4	6.2662091844769
6	65236	16.5	3.052201857729
6	65867	16.6	0.63338069922428
6	66498	16.7	4.4624414250197
6	67129	16.8	3.218439863211
6	67760	16.9	1.343831353001
6	68391	17	5.101435442976
6	69022	17.1	2.2318929248287
6	69653	17.2	2.5520955352339
6	70284	17.3	0.973
6	70915	17.4	5.1537270858709
6	71546	17.5	0.70523718515708
6	72177	17.6	1.8022765184734
6	72808	17.7	7.609671160116
6	73439	17.8	0.973
6	74070	17.9	2.0990574166763
6	74701	18	3.5620612427041
6	75332	18.1	1.1562884478027
6	75963	18.2	1.4854348336442
6	76594	18.3	3.9326752815528
6	77225	18.4	2.5450722781917
6	77856	18.5	4.1664463929369
6	78487	18.6	5.1805929389723
6	79118	18.7	3.4980672418323
6	79749	18.8	0.973
6	80380	18.9	6.9694376592087
6	81011	19	4.3610788062534
6	81642	19.1	0.973
6	82273	19.2	2.9943892633343
6	82904	19.3	1.4035869762641
6	83535	19.4	4.8542020741724
6	84166	19.5	2.9272507330001
6	84797	19.6	4.8134506921607
5	22	0.3	-0.71835363695861
5	32	0.4	0.59923053847161
5	42	0.5	-0.15526809638832
5	52	0.6	-0.70175777263941
5	62	0.7	0.3311850312166
5	72	0.8	0.34824435375629
5	82	0.9	-0.67912599111441
5	92	1	0.87096977399199
5	102	1.1	-0.29962803611998
5	133	1.2	0.048588028876111
5	164	1.3	0.5577901307959
5	195	1.4	-0.25530420830474
5	226	1.5	-0.30087656623216
5	257	1.6	-0.23315173967276
5	288	1.7	-0.16186176536142
5	319	1.8	0.54963728019505
5	350	1.9	0.40950622514355
5	381	2	-0.28887203268241
5	412	2.1	-0.80788230460605
5	476	2.2	0.59471044219102
5	540	2.3	0.24640223509632
5	604	2.4	-0.43935469063001
5	668	2.5	-0.32596936214247
5	732	2.6	0.39364606896413
5	796	2.7	-0.50588124766946
5	860	2.8	0.53848178719637
5	924	2.9	0.21571853943168
5	988	3	-0.14336090406868
5	1052	3.1	-0.01934926107058
5	1161	3.2	0.006806477718051
5	1270	3.3	-0.46867188913748
5	1379	3.4	0.68110030358657
5	1488	3.5	0.049329317221414
5	1597	3.6	-0.1000081052538
5	1706	3.7	-0.022584531083716
5	1815	3.8	-0.4536649507936
5	1924	3.9	-0.24322888823225
5	2033	4	0.2148957024794
5	2142	4.1	0.40906489735935
5	2308	4.2	0.21751314240973
5	2474	4.3	0.21693544737062
5	2640	4.4	-0.77007654118351
5	2806	4.5	0.0022295875009348
5	2972	4.6	0.043933500372795
5	3138	4.7	-0.41060779844411
5	3304	4.8	0.39745899012779
5	3470	4.9	0.68655948222148
5	3636	5	0.046165975136674
5	3802	5.1	-0.053661093069231
5	4037	5.2	-0.21260561805683
5	4272	5.3	-0.19201228807216
5	4507	5.4	-0.096550311380987
5	4742	5.5	-0.47436847076753
5	4977	5.6	-0.06736912296617
5	5212	5.7	0.86131276804952
5	5447	5.8	-0.57288290187717
5	5682	5.9	0.8423872075975
5	5917	6	-0.46598859122021
5	6152	6.1	-0.51157961026767
5	6468	6.2	0.46551880971528
5	6784	6.3	0.077333934023045
5	7100	6.4	0.22518327557481
5	7416	6.5	-0.4079935387708
5	7732	6.6	-0.40651489994488
5	8048	6.7	0.43469987821297
5	8364	6.8	-0.46034277293362
5	8680	6.9	-0.043253559782173
5	8996	7	0.31850510726215
5	9312	7.1	-0.052131822868233
5	9721	7.2	0.9059100274462
5	10130	7.3	-0.019466021028336
5	10539	7.4	-0.14479412396906
5	10948	7.5	-1.1153834304074
5	11357	7.6	0.085728206904605
5	11766	7.7	0.41209757709876
5	12175	7.8	0.43211378592535
5	12584	7.9	-0.5139438772807
5	12993	8	0.63850375639742
5	13402	8.1	-0.72238889674193
5	13916	8.2	0.69004286252895
5	14430	8.3	0.10185432755389
5	14944	8.4	-1.0330668205628
5	15458	8.5	0.49996305597013
5	15972	8.6	0.32556712576188
5	16486	8.7	0.18313071487938
5	17000	8.8	0.13920606274624
5	17514	8.9	-0.1888474135194
5	18028	9	0.12088825677054
5	18542	9.1	-0.22049847636371
5	19173	9.2	-0.66795119985471
5	19804	9.3	0.95849710833281
5	20435	9.4	-0.10929380445742
5	21066	9.5	-0.99856096594596
5	21697	9.6	0.48342315715274
5	22328	9.7	-0.1426145249512
5	22959	9.8	0.3253793737618
5	23590	9.9	-0.32027377632911
5	24221	10	0.26151293783915
5	24852	10.1	0.28647978594528
5	25483	10.2	-0.11956730596722
5	26114	10.3	-0.76341239078904
5	26745	10.4	0.24674487502782
5	27376	10.5	-0.35305486014114
5	28007	10.6	0.94523119137158
5	28638	10.7	-0.95376915878152
5	29269	10.8	1.1191230043769
5	29900	10.9	-0.29956431717146
5	30531	11	0.36997908002231
5	31162	11.1	-0.61792188647669
5	31793	11.2	-0.4904015337117
5	32424	11.3	0.17179459738546
5	33055	11.4	0.041414688364583
5	33686	11.5	-0.12861949433571
5	34317	11.6	0.71175569777843
5	34948	11.7	-0.16518268529325
5	35579	11.8	-0.56643732022497
5	36210	11.9	0.57422482415568
5	36841	12	0.44653176106515
5	37472	12.1	-0.4233822844224
5	38103	12.2	0.43540913274047
5	38734	12.3	-1.201365684066
5	39365	12.4	0.26729898678603
5	39996	12.5	1.0144261278445
5	40627	12.6	-1.2795191555284
5	41258	12.7	0.6264782973798
5	41889	12.8	-0.50511835676154
5	42520	12.9	-0.13736318717712
5	43151	13	0.014212622609939
5	43782	13.1	0.81188386946451
5	44413	13.2	-0.50665725581347
5	45044	13.3	0.5565208065789
5	45675	13.4	0.093190982891258
5	46306	13.5	-0.90595698126126
5	46937	13.6	0.066937077464537
5	47568	13.7	-0.020865707332263
5	48199	13.8	0.060691887116988
5	48830	13.9	0.319310000143
5	49461	14	0.39847235404888
5	50092	14.1	-0.60151702403093
5	50723	14.2	-0.20590134533123
5	51354	14.3	0.16021660298577
5	51985	14.4	-0.071098234504454
5	52616	14.5	0.98559659619347
5	53247	14.6	0.04621200123804
5	53878	14.7	-0.71441514603794
5	54509	14.8	-0.10382832402829
5	55140	14.9	0.36563154817557
5	55771	15	-0.23857445416503
5	56402	15.1	0.18049163334069
5	57033	15.2	0.11280633646528
5	57664	15.3	0.012451378884748
5	58295	15.4	-0.10358691839503
5	58926	15.5	0.24288290399127
5	59557	15.6	-0.30334285935385
5	60188	15.7	0.55979635843542
5	60819	15.8	-0.94742134695409
5	61450	15.9	-0.23442007473204
5	62081	16	0.3521278774133
5	62712	16.1	0.32503506515642
5	63343	16.2	0.14036897744518
5	63974	16.3	-0.60560084152968
5	64605	16.4	0.71039763903244
5	65236	16.5	0.046263989829463
5	65867	16.6	-0.45284207267684
5	66498	16.7	0.33810546032615
5	67129	16.8	0.080724698840662
5	67760	16.9	-0.30597568207888
5	68391	17	0.46878356467936
5	69022	17.1	-0.12317674001679
5	69653	17.2	-0.05687241868582
5	70284	17.3	-0.49528019814755
5	70915	17.4	0.48068564836868
5	71546	17.5	-0.43791045045946
5	72177	17.6	-0.21028625390024
5	72808	17.7	0.98532966254279
5	73439	17.8	-0.64078829784414
5	74070	17.9	-0.14927045940421
5	74701	18	0.1530560797546
5	75332	18.1	-0.34419027999974
5	75963	18.2	-0.27543807483745
5	76594	18.3	0.23147070035339
5	77225	18.4	-0.056033317837851
5	77856	18.5	0.27888846273999
5	78487	18.6	0.48611636329444
5	79118	18.7	0.1379806821933
5	79749	18.8	-1.0517215542961
5	80380	18.9	0.85610095481389
5	81011	19	0.31555835802571
5	81642	19.1	-0.59254887290297
5	82273	19.2	0.035520423203721
5	82904	19.3	-0.29306634133683
5	83535	19.4	0.41961960599291
5	84166	19.5	0.021126138209375
5	84797	19.6	0.40889415717682
4	12	0.2	20.090445920257
4	22	0.3	20.018610556561
4	32	0.4	20.078533610408
4	42	0.5	20.063006800769
4	52	0.6	19.992831023505
4	62	0.7	20.025949526627
4	72	0.8	20.060773962003
4	82	0.9	19.992861362891
4	92	1	20.07995834029
4	102	1.1	20.049995536678
4	133	1.2	20.054854339566
4	164	1.3	20.110633352646
4	195	1.4	20.085102931815
4	226	1.5	20.055015275192
4	257	1.6	20.031700101225
4	288	1.7	20.015513924689
4	319	1.8	20.070477652708
4	350	1.9	20.111428275222
4	381	2	20.082541071954
4	412	2.1	20.001752841494
4	476	2.2	20.061223885713
4	540	2.3	20.085864109222
4	604	2.4	20.041928640159
4	668	2.5	20.009331703945
4	732	2.6	20.048696310841
4	796	2.7	19.998108186075
4	860	2.8	20.051956364794
4	924	2.9	20.073528218737
4	988	3	20.05919212833
4	1052	3.1	20.057257202223
4	1161	3.2	20.057937849995
4	1270	3.3	20.011070661081
4	1379	3.4	20.07918069144
4	1488	3.5	20.084113623162
4	1597	3.6	20.074112812637
4	1706	3.7	20.071854359529
4	1815	3.8	20.026487864449
4	1924	3.9	20.002164975626
4	2033	4	20.023654545874
4	2142	4.1	20.06456103561
4	2308	4.2	20.086312349851
4	2474	4.3	20.108005894588
4	2640	4.4	20.030998240469
4	2806	4.5	20.03122119922
4	2972	4.6	20.035614549257
4	3138	4.7	19.994553769412
4	3304	4.8	20.034299668425
4	3470	4.9	20.102955616647
4	3636	5	20.107572214161
4	3802	5.1	20.102206104854
4	4037	5.2	20.080945543048
4	4272	5.3	20.061744314241
4	4507	5.4	20.052089283103
4	4742	5.5	20.004652436026
4	4977	5.6	19.99791552373
4	5212	5.7	20.084046800535
4	5447	5.8	20.026758510347
4	5682	5.9	20.110997231107
4	5917	6	20.064398371985
4	6152	6.1	20.013240410958
4	6468	6.2	20.059792291929
4	6784	6.3	20.067525685332
4	7100	6.4	20.090044012889
4	7416	6.5	20.049244659012
4	7732	6.6	20.008593169018
4	8048	6.7	20.052063156839
4	8364	6.8	20.006028879546
4	8680	6.9	20.001703523567
4	8996	7	20.033554034294
4	9312	7.1	20.028340852007
4	9721	7.2	20.118931854751
4	10130	7.3	20.116985252649
4	10539	7.4	20.102505840252
4	10948	7.5	19.990967497211
4	11357	7.6	19.999540317901
4	11766	7.7	20.040750075611
4	12175	7.8	20.083961454204
4	12584	7.9	20.032567066476
4	12993	8	20.096417442115
4	13402	8.1	20.024178552441
4	13916	8.2	20.093182838694
4	14430	8.3	20.10336827145
4	14944	8.4	20.000061589393
4	15458	8.5	20.05005789499
4	15972	8.6	20.082614607567
4	16486	8.7	20.100927679054
4	17000	8.8	20.114848285329
4	17514	8.9	20.095963543977
4	18028	9	20.108052369654
4	18542	9.1	20.086002522018
4	19173	9.2	20.019207402032
4	19804	9.3	20.115057112866
4	20435	9.4	20.10412773242
4	21066	9.5	20.004271635825
4	21697	9.6	20.052613951541
4	22328	9.7	20.038352499045
4	22959	9.8	20.070890436422
4	23590	9.9	20.038863058789
4	24221	10	20.065014352573
4	24852	10.1	20.093662331167
4	25483	10.2	20.08170560057
4	26114	10.3	20.005364361492
4	26745	10.4	20.030038848994
4	27376	10.5	19.99473336298
4	28007	10.6	20.089256482117
4	28638	10.7	19.993879566239
4	29269	10.8	20.105791866677
4	29900	10.9	20.07583543496
4	30531	11	20.112833342962
4	31162	11.1	20.051041154314
4	31793	11.2	20.002001000943
4	32424	11.3	20.019180460682
4	33055	11.4	20.023321929518
4	33686	11.5	20.010459980085
4	34317	11.6	20.081635549862
4	34948	11.7	20.065117281333
4	35579	11.8	20.008473549311
4	36210	11.9	20.065896031726
4	36841	12	20.110549207833
4	37472	12.1	20.06821097939
4	38103	12.2	20.111751892664
4	38734	12.3	19.991615324258
4	39365	12.4	20.018345222936
4	39996	12.5	20.119787835721
4	40627	12.6	19.991835920168
4	41258	12.7	20.054483749906
4	41889	12.8	20.00397191423
4	42520	12.9	19.990235595512
4	43151	13	19.991656857773
4	43782	13.1	20.07284524472
4	44413	13.2	20.022179519138
4	45044	13.3	20.077831599796
4	45675	13.4	20.087150698085
4	46306	13.5	19.996554999959
4	46937	13.6	20.003248707706
4	47568	13.7	20.001162136972
4	48199	13.8	20.007231325684
4	48830	13.9	20.039162325698
4	49461	14	20.079009561103
4	50092	14.1	20.0188578587
4	50723	14.2	19.998267724167
4	51354	14.3	20.014289384466
4	51985	14.4	20.007179561015
4	52616	14.5	20.105739220635
4	53247	14.6	20.110360420758
4	53878	14.7	20.038918906155
4	54509	14.8	20.028536073752
4	55140	14.9	20.065099228569
4	55771	15	20.041241783153
4	56402	15.1	20.059290946487
4	57033	15.2	20.070571580133
4	57664	15.3	20.071816718022
4	58295	15.4	20.061458026182
4	58926	15.5	20.085746316581
4	59557	15.6	20.055412030646
4	60188	15.7	20.11139166649
4	60819	15.8	20.016649531794
4	61450	15.9	19.993207524321
4	62081	16	20.028420312062
4	62712	16.1	20.060923818578
4	63343	16.2	20.074960716323
4	63974	16.3	20.01440063217
4	64605	16.4	20.085440396073
4	65236	16.5	20.090066795056
4	65867	16.6	20.044782587788
4	66498	16.7	20.078593133821
4	67129	16.8	20.086665603705
4	67760	16.9	20.056068035497
4	68391	17	20.102946391965
4	69022	17.1	20.090628717963
4	69653	17.2	20.084941476095
4	70284	17.3	20.03541345628
4	70915	17.4	20.083482021117
4	71546	17.5	20.039690976071
4	72177	17.6	20.018662350681
4	72808	17.7	20.117195316935
4	73439	17.8	20.053116487151
4	74070	17.9	20.03818944121
4	74701	18	20.053495049186
4	75332	18.1	20.019076021186
4	75963	18.2	19.991532213702
4	76594	18.3	20.014679283737
4	77225	18.4	20.009075951953
4	77856	18.5	20.036964798227
4	78487	18.6	20.085576434557
4	79118	18.7	20.099374502776
4	79749	18.8	19.994202347347
4	80380	18.9	20.079812442828
4	81011	19	20.111368278631
4	81642	19.1	20.05211339134
4	82273	19.2	20.055665433661
4	82904	19.3	20.026358799527
4	83535	19.4	20.068320760126
4	84166	19.5	20.070433373947
4	84797	19.6	20.111322789665
3	2	0.1	416.30025728988
3	12	0.2	416.30025728988
3	22	0.3	414.29131405214
3	32	0.4	412.28955398836
3	42	0.5	410.28180192151
3	52	0.6	408.27560245729
3	62	0.7	406.27642021676
3	72	0.8	404.273926293
3	82	0.9	402.26795010139
3	92	1	400.26876482708
3	102	1.1	398.26087029443
3	133	1.2	396.25597189097
3	164	1.3	394.25058763174
3	195	1.4	392.23962575261
3	226	1.5	390.23121678675
3	257	1.6	388.22581643477
3	288	1.7	386.22274748256
3	319	1.8	384.22129706635
3	350	1.9	382.21435055463
3	381	2	380.20330918724
3	412	2.1	378.19515639445
3	476	2.2	376.19508201714
3	540	2.3	374.18906083543
3	604	2.4	372.18057575567
3	668	2.5	370.17648400117
3	732	2.6	368.17565177585
3	796	2.7	366.17088328842
3	860	2.8	364.17117335826
3	924	2.9	362.16607888189
3	988	3	360.15882732895
3	1052	3.1	358.15300931273
3	1161	3.2	356.14738477936
3	1270	3.3	354.14169218464
3	1379	3.4	352.14068607237
3	1488	3.5	350.13286930068
3	1597	3.6	348.1245592607
3	1706	3.7	346.11724925132
3	1815	3.8	344.11016507586
3	1924	3.9	342.10761732104
3	2033	4	340.10750173239
3	2142	4.1	338.10523729513
3	2308	4.2	336.09888241526
3	2474	4.3	334.09035251371
3	2640	4.4	332.07965336712
3	2806	4.5	330.07665459745
3	2972	4.6	328.07363353302
3	3138	4.7	326.07017315576
3	3304	4.8	324.07081864934
3	3470	4.9	322.06748975353
3	3636	5	320.05729560925
3	3802	5.1	318.04663982852
3	4037	5.2	316.03652063165
3	4272	5.3	314.0285273837
3	4507	5.4	312.02245416176
3	4742	5.5	310.01734639423
3	4977	5.6	308.01698207209
3	5212	5.7	306.01729140719
3	5447	5.8	304.00898804914
3	5682	5.9	302.00641323109
3	5917	6	299.99541496594
3	6152	6.1	297.98907635162
3	6468	6.2	295.98785327531
3	6784	6.3	293.98197524575
3	7100	6.4	291.97532391587
3	7416	6.5	289.96642086684
3	7732	6.6	287.96159754736
3	8048	6.7	285.96083917181
3	8364	6.8	283.95573401677
3	8680	6.9	281.95523205722
3	8996	7	279.95516261145
3	9312	7.1	277.95190827529
3	9721	7.2	275.94917523106
3	10130	7.3	273.93738354357
3	10539	7.4	271.92578650648
3	10948	7.5	269.91563733758
3	11357	7.6	267.91664144028
3	11766	7.7	265.91678830416
3	12175	7.8	263.91281440018
3	12584	7.9	261.90451957632
3	12993	8	259.90136393197
3	13402	8.1	257.89182357216
3	13916	8.2	255.88950673689
3	14430	8.3	253.88028982111
3	14944	8.4	251.87005441344
3	15458	8.5	249.8701491528
3	15972	8.6	247.86524451383
3	16486	8.7	245.85708436785
3	17000	8.8	243.84709300711
3	17514	8.9	241.83570965597
3	18028	9	239.82621468369
3	18542	9.1	237.81551088983
3	19173	9.2	235.80701196949
3	19804	9.3	233.80519222418
3	20435	9.4	231.79378799134
3	21066	9.5	229.7834766414
3	21697	9.6	227.78315039736
3	22328	9.7	225.77799016563
3	22959	9.8	223.7742560072
3	23590	9.9	221.76726821919
3	24221	10	219.76348300736
3	24852	10.1	217.75708279809
3	25483	10.2	215.74781793548
3	26114	10.3	213.73974868561
3	26745	10.4	211.73931317452
3	27376	10.5	209.73641033915
3	28007	10.6	207.73703787428
3	28638	10.7	205.72821357435
3	29269	10.8	203.72892648484
3	29900	10.9	201.71844872987
3	30531	11	199.71096646695
3	31162	11.1	197.69978459988
3	31793	11.2	195.69478163994
3	32424	11.3	193.69468244793
3	33055	11.4	191.69286539662
3	33686	11.5	189.69063421932
3	34317	11.6	187.68968917207
3	34948	11.7	185.68162692692
3	35579	11.8	183.67521642529
3	36210	11.9	181.6744700111
3	36841	12	179.66798163835
3	37472	12.1	177.65702817327
3	38103	12.2	175.65030831744
3	38734	12.3	173.63923458995
3	39365	12.4	171.64017391321
3	39996	12.5	169.63844038146
3	40627	12.6	167.6265631002
3	41258	12.7	165.62748036499
3	41889	12.8	163.62213316285
3	42520	12.9	161.62183688946
3	43151	13	159.62291417864
3	43782	13.1	157.62384934877
3	44413	13.2	155.61666608978
3	45044	13.3	153.61454914775
3	45675	13.4	151.60686727842
3	46306	13.5	149.59825354627
3	46937	13.6	147.59869892689
3	47568	13.7	145.5984749705
3	48199	13.8	143.59845966065
3	48830	13.9	141.59783746256
3	49461	14	139.59402232555
3	50092	14.1	137.58622266603
3	50723	14.2	135.58443787329
3	51354	14.3	133.58471199012
3	51985	14.4	131.58338402176
3	52616	14.5	129.58276699987
3	53247	14.6	127.57229450924
3	53878	14.7	125.56135992191
3	54509	14.8	123.55756912563
3	55140	14.9	121.55481656021
3	55771	15	119.54840786377
3	56402	15.1	117.5443847915
3	57033	15.2	115.53855689396
3	57664	15.3	113.53160098997
3	58295	15.4	111.52452057847
3	58926	15.5	109.51847598389
3	59557	15.6	107.51000268281
3	60188	15.7	105.50456265728
3	60819	15.8	103.49352495058
3	61450	15.9	101.49196097939
3	62081	16	99.492741090685
3	62712	16.1	97.490000100849
3	63343	16.2	95.484008924337
3	63974	16.3	93.476614128867
3	64605	16.4	91.475275036292
3	65236	16.5	89.466832325715
3	65867	16.6	87.457926998579
3	66498	16.7	85.453549863716
3	67129	16.8	83.445791844821
3	67760	16.9	81.437226619661
3	68391	17	79.431720996962
3	69022	17.1	77.421527775111
3	69653	17.2	75.41256625852
3	70284	17.3	73.404173437424
3	70915	17.4	71.400733168445
3	71546	17.5	69.392486285484
3	72177	17.6	67.388618286106
3	72808	17.7	65.38685304318
3	73439	17.8	63.375235000717
3	74070	17.9	61.370024517962
3	74701	18	59.366306664495
3	75332	18.1	57.361058327445
3	75963	18.2	55.359251719556
3	76594	18.3	53.360199353458
3	77225	18.4	51.358832397132
3	77856	18.5	49.358025745716
3	78487	18.6	47.35443035037
3	79118	18.7	45.34597403663
3	79749	18.8	43.336137985679
3	80380	18.9	41.336818619688
3	81011	19	39.328938676043
3	81642	19.1	37.317903308014
3	82273	19.2	35.312793129779
3	82904	19.3	33.307327765232
3	83535	19.4	31.304792916249
3	84166	19.5	29.2980620829
3	84797	19.6	27.291119998826
2	2	0.1	23.397598627787
2	12	0.2	23.397598627787
2	22	0.3	23.41634917009
2	32	0.4	23.435032667986
2	42	0.5	23.453772092454
2	52	0.6	23.47249702565
2	62	0.7	23.491156463342
2	72	0.8	23.509846810746
2	82	0.9	23.528569660019
2	92	1	23.547229126027
2	102	1.1	23.565969880204
2	133	1.2	23.584682669904
2	164	1.3	23.603399994356
2	195	1.4	23.622169377719
2	226	1.5	23.640914933376
2	257	1.6	23.65963240803
2	288	1.7	23.678328122482
2	319	1.8	23.697008730272
2	350	1.9	23.715740636062
2	381	2	23.734510761332
2	412	2.1	23.753253925989
2	476	2.2	23.771921690471
2	540	2.3	23.790644959661
2	604	2.4	23.80939122573
2	668	2.5	23.828096486544
2	732	2.6	23.846771324427
2	796	2.7	23.865482901551
2	860	2.8	23.884147264453
2	924	2.9	23.902861884206
2	988	3	23.921596637109
2	1052	3.1	23.940318010047
2	1161	3.2	23.959037577106
2	1270	3.3	23.977757779418
2	1379	3.4	23.996434240281
2	1488	3.5	24.015174268673
2	1597	3.6	24.033918901002
2	1706	3.7	24.052654199511
2	1815	3.8	24.071387390191
2	1924	3.9	24.090078240029
2	2033	4	24.108746389158
2	2142	4.1	24.127434594642
2	2308	4.2	24.146160978416
2	2474	4.3	24.164907662831
2	2640	4.4	24.18367459397
2	2806	4.5	24.202369653371
2	2972	4.6	24.221064920861
2	3138	4.7	24.239764288693
2	3304	4.8	24.258425334235
2	3470	4.9	24.27712347488
2	3636	5	24.295885692563
2	3802	5.1	24.314652218946
2	4037	5.2	24.333413737104
2	4272	5.3	24.352155412644
2	4507	5.4	24.370879167553
2	4742	5.5	24.38959391136
2	4977	5.6	24.408264382053
2	5212	5.7	24.426928565142
2	5447	5.8	24.445673135105
2	5682	5.9	24.464364237538
2	5917	6	24.483133960512
2	6152	6.1	24.50186019247
2	6468	6.2	24.520538678375
2	6784	6.3	24.539260611449
2	7100	6.4	24.557989762149
2	7416	6.5	24.576739929349
2	7732	6.6	24.59545201825
2	8048	6.7	24.614126166854
2	8364	6.8	24.632840886277
2	8680	6.9	24.651512641613
2	8996	7	24.670180360067
2	9312	7.1	24.688877804807
2	9721	7.2	24.70757038405
2	10130	7.3	24.726347512458
2	10539	7.4	24.745122824091
2	10948	7.5	24.763884621994
2	11357	7.6	24.782542320445
2	11766	7.7	24.801208019965
2	12175	7.8	24.819912180817
2	12584	7.9	24.838656671126
2	12993	8	24.857353194722
2	13402	8.1	24.876109310285
2	13916	8.2	24.894798004827
2	14430	8.3	24.913551101513
2	14944	8.4	24.932313704329
2	15458	8.5	24.950979890355
2	15972	8.6	24.969692738254
2	16486	8.7	24.988435971543
2	17000	8.8	25.007196296538
2	17514	8.9	25.025969613725
2	18028	9	25.044725305662
2	18542	9.1	25.063492280177
2	19173	9.2	25.082238675427
2	19804	9.3	25.100922730363
2	20435	9.4	25.11969624245
2	21066	9.5	25.138459554076
2	21697	9.6	25.157129669365
2	22328	9.7	25.175844902848
2	22959	9.8	25.194546826026
2	23590	9.9	25.21327911707
2	24221	10	25.231981516757
2	24852	10.1	25.250708323614
2	25483	10.2	25.269461867814
2	26114	10.3	25.28820425272
2	26745	10.4	25.306875387857
2	27376	10.5	25.325569551852
2	28007	10.6	25.34423076501
2	28638	10.7	25.362980197202
2	29269	10.8	25.381640613506
2	29900	10.9	25.400405478279
2	30531	11	25.419142384522
2	31162	11.1	25.43791382115
2	31793	11.2	25.456627586732
2	32424	11.3	25.475295582823
2	33055	11.4	25.493979612614
2	33686	11.5	25.512667507665
2	34317	11.6	25.531343398576
2	34948	11.7	25.550085718103
2	35579	11.8	25.568812621024
2	36210	11.9	25.587486657986
2	36841	12	25.60621428772
2	37472	12.1	25.624983592551
2	38103	12.2	25.64371338284
2	38734	12.3	25.662483810144
2	39365	12.4	25.681142113216
2	39996	12.5	25.699825363475
2	40627	12.6	25.718603290776
2	41258	12.7	25.737261799731
2	41889	12.8	25.755978778309
2	42520	12.9	25.774648613867
2	43151	13	25.793305629229
2	43782	13.1	25.811963971065
2	44413	13.2	25.830698086544
2	45044	13.3	25.849384915376
2	45675	13.4	25.868123684652
2	46306	13.5	25.886871151503
2	46937	13.6	25.905534064806
2	47568	13.7	25.92420322539
2	48199	13.8	25.942870438564
2	48830	13.9	25.961543316151
2	49461	14	25.980245995145
2	50092	14.1	25.99898586382
2	50723	14.2	26.017669592525
2	51354	14.3	26.036334104325
2	51985	14.4	26.055013569243
2	52616	14.5	26.073686398518
2	53247	14.6	26.092451214156
2	53878	14.7	26.11122034279
2	54509	14.8	26.1299227946
2	55140	14.9	26.148615556045
2	55771	15	26.167342442117
2	56402	15.1	26.186047061882
2	57033	15.2	26.204768527048
2	57664	15.3	26.223500520501
2	58295	15.4	26.24223367605
2	58926	15.5	26.260957163765
2	59557	15.6	26.279703319897
2	60188	15.7	26.298421164846
2	60819	15.8	26.317191255948
2	61450	15.9	26.335872923607
2	62081	16	26.35453271269
2	62712	16.1	26.373225366094
2	63343	16.2	26.391948355229
2	63974	16.3	26.410684445092
2	64605	16.4	26.429364013838
2	65236	16.5	26.448109884453
2	65867	16.6	26.466860072916
2	66498	16.7	26.485567997337
2	67129	16.8	26.504307477358
2	67760	16.9	26.523054491467
2	68391	17	26.541772948669
2	69022	17.1	26.560535157742
2	69653	17.2	26.579285870651
2	70284	17.3	26.598031275621
2	70915	17.4	26.616730455771
2	71546	17.5	26.635474498622
2	72177	17.6	26.654177671009
2	72808	17.7	26.672861217245
2	73439	17.8	26.691636724932
2	74070	17.9	26.710352427434
2	74701	18	26.729054198429
2	75332	18.1	26.747770254247
2	75963	18.2	26.766454186564
2	76594	18.3	26.785112412069
2	77225	18.4	26.803792240882
2	77856	18.5	26.822466840071
2	78487	18.6	26.841167468099
2	79118	18.7	26.859913465679
2	79749	18.8	26.878672341085
2	80380	18.9	26.897333058643
2	81011	19	26.916073676653
2	81642	19.1	26.934843745927
2	82273	19.2	26.953558512234
2	82904	19.3	26.972276593685
2	83535	19.4	26.990967323066
2	84166	19.5	27.009697215815
2	84797	19.6	27.028429080279
13	164	1.3	2.1224991197358
13	195	1.4	8.4985424634402
13	226	1.5	0.973
13	257	1.6	0.973
13	288	1.7	6.1065235546656
13	319	1.8	2.7859050656613
13	350	1.9	4.3220408367392
13	381	2	5.4614875186795
13	412	2.1	2.5096724352259
13	476	2.2	0.973
13	540	2.3	11.524667011495
13	604	2.4	3.2609449908535
13	668	2.5	2.0716985719065
13	732	2.6	0.973
13	796	2.7	9.1551860052598
13	860	2.8	0.973
13	924	2.9	4.0352767953467
13	988	3	7.8934681134024
13	1052	3.1	0.973
13	1161	3.2	4.3531254951502
13	1270	3.3	2.9922272448345
13	1379	3.4	3.2767714453131
13	1488	3.5	6.8107964543295
13	1597	3.6	2.3259633492992
13	1706	3.7	0.973
13	1815	3.8	6.4843396832229
13	1924	3.9	0.973
13	2033	4	5.4923526948202
13	2142	4.1	2.3461798476602
13	2308	4.2	6.3637183843924
13	2474	4.3	4.1639402472129
13	2640	4.4	2.7419803775324
13	2806	4.5	0.973
13	2972	4.6	5.6392301944296
13	3138	4.7	6.3044810264888
13	3304	4.8	0.973
13	3470	4.9	4.5759272468555
13	3636	5	4.8051479792988
13	3802	5.1	3.9249679057055
13	4037	5.2	2.5219632949637
13	4272	5.3	4.1388731197623
13	4507	5.4	5.0635828745677
13	4742	5.5	2.352560326155
13	4977	5.6	1.1343791668616
13	5212	5.7	3.0049711316182
13	5447	5.8	2.9589697980465
13	5682	5.9	3.1382762544801
13	5917	6	3.8834903326974
13	6152	6.1	2.5878541900501
13	6468	6.2	0.973
13	6784	6.3	5.8085781095106
13	7100	6.4	5.0916852666205
13	7416	6.5	4.1743780985821
13	7732	6.6	2.1286140065746
13	8048	6.7	0.973
13	8364	6.8	4.9142075342042
13	8680	6.9	3.0200207974525
13	8996	7	5.0316470280067
13	9312	7.1	6.633977368483
13	9721	7.2	0.973
13	10130	7.3	7.5737460794618
13	10539	7.4	4.9753180818619
13	10948	7.5	0.973
13	11357	7.6	3.235874418072
13	11766	7.7	3.7854032752579
13	12175	7.8	2.5383997382846
13	12584	7.9	6.2568291606254
13	12993	8	0.973
13	13402	8.1	4.6914153402018
13	13916	8.2	0.973
13	14430	8.3	10.570565727909
13	14944	8.4	4.6269478128601
13	15458	8.5	0.973
13	15972	8.6	2.6552881349548
13	16486	8.7	1.1590845839996
13	17000	8.8	9.0048955849111
13	17514	8.9	3.3612864862938
13	18028	9	0.67915562757654
13	18542	9.1	2.0915241804257
13	19173	9.2	5.5703295634002
13	19804	9.3	0.973
13	20435	9.4	5.6084879619002
13	21066	9.5	4.4817643418277
13	21697	9.6	0.973
13	22328	9.7	3.2700891792842
13	22959	9.8	1.642751281558
13	23590	9.9	3.3713614960911
13	24221	10	1.3028615859803
13	24852	10.1	9.1182542177212
13	25483	10.2	4.8984903348784
13	26114	10.3	2.1953746110335
13	26745	10.4	0.973
13	27376	10.5	2.892417814139
13	28007	10.6	0.973
13	28638	10.7	7.9007820977296
13	29269	10.8	0.973
13	29900	10.9	9.7844123703957
13	30531	11	0.973
13	31162	11.1	3.50345038062
13	31793	11.2	1.4622402605561
13	32424	11.3	4.9596541631211
13	33055	11.4	0.973
13	33686	11.5	4.3652958633466
13	34317	11.6	0.92202147632234
13	34948	11.7	5.7370980754475
13	35579	11.8	3.0220653231749
13	36210	11.9	1.7162708419683
13	36841	12	8.6141171644977
13	37472	12.1	3.6139999673119
13	38103	12.2	0.973
13	38734	12.3	4.6185538880009
13	39365	12.4	0.973
13	39996	12.5	5.7380212400804
13	40627	12.6	7.3918298363153
13	41258	12.7	0.973
13	41889	12.8	0.61641154827079
13	42520	12.9	3.0562028093719
13	43151	13	0.60277834280606
13	43782	13.1	7.2186570090028
13	44413	13.2	5.6437965822968
13	45044	13.3	1.5390762804107
13	45675	13.4	3.0862685296128
13	46306	13.5	4.3326289240534
13	46937	13.6	0.59761001783949
13	47568	13.7	1.1740158418005
13	48199	13.8	1.1743558740846
13	48830	13.9	7.5353849413467
13	49461	14	0.973
13	50092	14.1	8.2379389954349
13	50723	14.2	0.973
13	51354	14.3	1.9388604367254
13	51985	14.4	4.5162832849438
13	52616	14.5	0.973
13	53247	14.6	5.1601285216739
13	53878	14.7	5.7506636117596
13	54509	14.8	0.973
13	55140	14.9	6.1650064278358
13	55771	15	0.973
13	56402	15.1	2.3354683564049
13	57033	15.2	6.1984556669835
13	57664	15.3	4.8954042634747
13	58295	15.4	4.2086841656752
13	58926	15.5	0.973
13	59557	15.6	6.3275566532403
13	60188	15.7	4.0703601593834
13	60819	15.8	2.7517360132745
13	61450	15.9	0.973
13	62081	16	3.3034414722412
13	62712	16.1	1.4193017167184
13	63343	16.2	6.9095363269945
13	63974	16.3	0.95732114283917
13	64605	16.4	2.8908362322942
13	65236	16.5	7.2796441297908
13	65867	16.6	0.973
13	66498	16.7	2.0765078451657
13	67129	16.8	3.0147210417189
13	67760	16.9	6.4024428283951
13	68391	17	1.4413696298645
13	69022	17.1	3.1300043232003
13	69653	17.2	0.973
13	70284	17.3	4.8465656361814
13	70915	17.4	0.973
13	71546	17.5	6.8167151720492
13	72177	17.6	0.973
13	72808	17.7	5.7251247633844
13	73439	17.8	8.4069759889819
13	74070	17.9	0.973
13	74701	18	3.0613755569462
13	75332	18.1	4.1774269090869
13	75963	18.2	0.86882656510375
13	76594	18.3	0.973
13	77225	18.4	3.7869215227063
13	77856	18.5	5.8010685264557
13	78487	18.6	2.2792674824023
13	79118	18.7	5.8870694496927
13	79749	18.8	0.973
13	80380	18.9	2.8817575402152
13	81011	19	4.9557658109419
13	81642	19.1	3.7831356265792
13	82273	19.2	0.973
13	82904	19.3	3.4538122960519
13	83535	19.4	4.1599363488978
13	84166	19.5	1.7684238239404
13	84797	19.6	5.3217230203191
13	85428	19.7	3.2044572936142
13	85942	19.8	5.7811211804409
13	86456	19.9	1.504874008753
13	86970	20	3.3442662582589
13	87484	20.1	1.5722873541701
13	87998	20.2	2.8254037113443
13	88512	20.3	1.9632182386687
13	89026	20.4	5.8937893131902
13	89540	20.5	0.973
13	90054	20.6	4.0646776100719
13	90568	20.7	1.4951123172348
13	91082	20.8	2.3791540729406
13	91596	20.9	3.200976753901
12	164	1.3	-0.10683853972306
12	195	1.4	1.3024228277814
12	226	1.5	-0.61952516370898
12	257	1.6	-0.43053138295086
12	288	1.7	0.77446660263121
12	319	1.8	0.03752744898879
12	350	1.9	0.37634055985343
12	381	2	0.62451514375692
12	412	2.1	-0.026762539247649
12	476	2.2	-0.76776916708852
12	540	2.3	1.9467797932031
12	604	2.4	0.13384939646336
12	668	2.5	-0.12646780083006
12	732	2.6	-0.79493027980014
12	796	2.7	1.4203034124094
12	860	2.8	-0.55967353002689
12	924	2.9	0.30238800364796
12	988	3	1.1363877571372
12	1052	3.1	-0.43853978886332
12	1161	3.2	0.36644635559593
12	1270	3.3	0.069975251873586
12	1379	3.4	0.13137086077272
12	1488	3.5	0.89270848849814
12	1597	3.6	-0.077686718129435
12	1706	3.7	-0.70378651006298
12	1815	3.8	0.82175258098783
12	1924	3.9	-0.70769884395119
12	2033	4	0.60775135006203
12	2142	4.1	-0.073151642390279
12	2308	4.2	0.79109132404263
12	2474	4.3	0.3150979981795
12	2640	4.4	0.0088799282992369
12	2806	4.5	-0.83841825169912
12	2972	4.6	0.63404929551044
12	3138	4.7	0.77182976601279
12	3304	4.8	-0.64648273385149
12	3470	4.9	0.40203669505928
12	3636	5	0.44880221738413
12	3802	5.1	0.25884816302263
12	4037	5.2	-0.041511512974637
12	4272	5.3	0.30339602619033
12	4507	5.4	0.49826853006504
12	4742	5.5	-0.079862934878676
12	4977	5.6	-0.33933747079349
12	5212	5.7	0.060373745853859
12	5447	5.8	0.05036439347613
12	5682	5.9	0.088349080814822
12	5917	6	0.24639287726522
12	6152	6.1	-0.02988295638005
12	6468	6.2	-0.55471275492696
12	6784	6.3	0.65655050608925
12	7100	6.4	0.50076129283589
12	7416	6.5	0.30419729745919
12	7732	6.6	-0.12988269217143
12	8048	6.7	-0.87982295787604
12	8364	6.8	0.46437675988017
12	8680	6.9	0.060802472682049
12	8996	7	0.48622869937738
12	9312	7.1	0.82034545637775
12	9721	7.2	-0.75053152284465
12	10130	7.3	1.0168163103657
12	10539	7.4	0.46546484378165
12	10948	7.5	-1.0327468822918
12	11357	7.6	0.10253419120914
12	11766	7.7	0.21789907971296
12	12175	7.8	-0.045628009225673
12	12584	7.9	0.73560382397101
12	12993	8	-0.6264947139649
12	13402	8.1	0.40694643170276
12	13916	8.2	-0.90888581909582
12	14430	8.3	1.6385816044264
12	14944	8.4	0.38746926195021
12	15458	8.5	-0.82959445346766
12	15972	8.6	-0.02337786439
12	16486	8.7	-0.33802696440084
12	17000	8.8	1.3045898693552
12	17514	8.9	0.12109025321191
12	18028	9	-0.44033415157621
12	18542	9.1	-0.14342481526313
12	19173	9.2	0.58387152156417
12	19804	9.3	-1.1377159250043
12	20435	9.4	0.59527605273519
12	21066	9.5	0.35676800599273
12	21697	9.6	-0.49800563332898
12	22328	9.7	0.10419098239755
12	22959	9.8	-0.23723364051992
12	23590	9.9	0.12590569554238
12	24221	10	-0.30841994587647
12	24852	10.1	1.3239022252818
12	25483	10.2	0.4389154307502
12	26114	10.3	-0.12486426703603
12	26745	10.4	-0.5378290850307
12	27376	10.5	0.022444840725591
12	28007	10.6	-1.274874062109
12	28638	10.7	1.0727733514739
12	29269	10.8	-0.80444452272143
12	29900	10.9	1.4605379814612
12	30531	11	-0.55648889879564
12	31162	11.1	0.15017996490521
12	31793	11.2	-0.27654981344043
12	32424	11.3	0.45399262550525
12	33055	11.4	-0.57464164507785
12	33686	11.5	0.33090450719143
12	34317	11.6	-0.38954658956463
12	34948	11.7	0.61668279623774
12	35579	11.8	0.048678449458066
12	36210	11.9	-0.22386978929852
12	36841	12	1.2086842908581
12	37472	12.1	0.16766604647366
12	38103	12.2	-1.3527177027851
12	38734	12.3	0.38154658616403
12	39365	12.4	-0.59417810518472
12	39996	12.5	0.6152703495534
12	40627	12.6	0.9529973373601
12	41258	12.7	-0.83930347334412
12	41889	12.8	-0.45418750562845
12	42520	12.9	0.056109223597716
12	43151	13	-0.45664656294434
12	43782	13.1	0.92309891494374
12	44413	13.2	0.59073964327318
12	45044	13.3	-0.26281007539868
12	45675	13.4	0.059325782271209
12	46306	13.5	0.31736815894906
12	46937	13.6	-0.45887805196887
12	47568	13.7	-0.33819904450066
12	48199	13.8	-0.33759127307221
12	48830	13.9	0.98462016303653
12	49461	14	-0.49770345200905
12	50092	14.1	1.1252125386678
12	50723	14.2	-0.69007188543161
12	51354	14.3	-0.17948036722171
12	51985	14.4	0.35574395797351
12	52616	14.5	-0.71935369080457
12	53247	14.6	0.49097129294839
12	53878	14.7	0.61005427041305
12	54509	14.8	-1.1807531061871
12	55140	14.9	0.69933884266586
12	55771	15	-0.46600531798482
12	56402	15.1	-0.09598315590889
12	57033	15.2	0.70531963288659
12	57664	15.3	0.43199632815977
12	58295	15.4	0.28813856464293
12	58926	15.5	-0.98844891726799
12	59557	15.6	0.72896101132031
12	60188	15.7	0.25947843801021
12	60819	15.8	-0.013690847078891
12	61450	15.9	-0.92626676971726
12	62081	16	0.10376271106715
12	62712	16.1	-0.28772770115985
12	63343	16.2	0.84981174236972
12	63974	16.3	-0.38462530453458
12	64605	16.4	0.017254869606695
12	65236	16.5	0.9222082947797
12	65867	16.6	-0.53803642108022
12	66498	16.7	-0.15260023441925
12	67129	16.8	0.042044831971353
12	67760	16.9	0.7400702263406
12	68391	17	-0.28540075278045
12	69022	17.1	0.064093645549903
12	69653	17.2	-0.62379098065545
12	70284	17.3	0.42058760803357
12	70915	17.4	-1.1065723876099
12	71546	17.5	0.8309543878282
12	72177	17.6	-0.8333780436848
12	72808	17.7	0.60585011509367
12	73439	17.8	1.1525946738019
12	74070	17.9	-1.0237255525127
12	74701	18	0.051754027624717
12	75332	18.1	0.28209898657177
12	75963	18.2	-0.40322986926867
12	76594	18.3	-0.71832567045625
12	77225	18.4	0.20510573753455
12	77856	18.5	0.62056004332604
12	78487	18.6	-0.11025869716448
12	79118	18.7	0.63501176014235
12	79749	18.8	-0.66516837462512
12	80380	18.9	0.014937887193973
12	81011	19	0.44332123293231
12	81642	19.1	0.19941357908579
12	82273	19.2	-0.73441063069144
12	82904	19.3	0.13360397159428
12	83535	19.4	0.2789450744698
12	84166	19.5	-0.2165651864123
12	84797	19.6	0.51811757930789
12	85428	19.7	0.079372214795086
12	85942	19.8	0.60888126380743
12	86456	19.9	-0.27309791324662
12	86970	20	0.10661386083811
12	87484	20.1	-0.25885980287566
12	87998	20.2	0.00029940060340294
12	88512	20.3	-0.17758177048528
12	89026	20.4	0.63194402419029
12	89540	20.5	-0.69335773400962
12	90054	20.6	0.25651611022187
12	90568	20.7	-0.27432433078065
12	91082	20.8	-0.091000188351629
12	91596	20.9	0.078965953132126
11	133	1.2	18.608189436843
11	164	1.3	18.59750558287
11	195	1.4	18.727747865648
11	226	1.5	18.665795349278
11	257	1.6	18.622742210982
11	288	1.7	18.700188871246
11	319	1.8	18.703941616144
11	350	1.9	18.74157567213
11	381	2	18.804027186505
11	412	2.1	18.801350932581
11	476	2.2	18.724574015872
11	540	2.3	18.919251995192
11	604	2.4	18.932636934839
11	668	2.5	18.919990154755
11	732	2.6	18.840497126775
11	796	2.7	18.982527468016
11	860	2.8	18.926560115014
11	924	2.9	18.956798915379
11	988	3	19.070437691092
11	1052	3.1	19.026583712206
11	1161	3.2	19.063228347766
11	1270	3.3	19.070225872953
11	1379	3.4	19.08336295903
11	1488	3.5	19.17263380788
11	1597	3.6	19.164865136067
11	1706	3.7	19.094486485061
11	1815	3.8	19.176661743159
11	1924	3.9	19.105891858764
11	2033	4	19.166666993771
11	2142	4.1	19.159351829532
11	2308	4.2	19.238460961936
11	2474	4.3	19.269970761754
11	2640	4.4	19.270858754584
11	2806	4.5	19.187016929414
11	2972	4.6	19.250421858965
11	3138	4.7	19.327604835566
11	3304	4.8	19.262956562181
11	3470	4.9	19.303160231687
11	3636	5	19.348040453425
11	3802	5.1	19.373925269728
11	4037	5.2	19.36977411843
11	4272	5.3	19.400113721049
11	4507	5.4	19.449940574056
11	4742	5.5	19.441954280568
11	4977	5.6	19.408020533488
11	5212	5.7	19.414057908074
11	5447	5.8	19.419094347421
11	5682	5.9	19.427929255503
11	5917	6	19.452568543229
11	6152	6.1	19.449580247591
11	6468	6.2	19.394108972099
11	6784	6.3	19.459764022708
11	7100	6.4	19.509840151991
11	7416	6.5	19.540259881737
11	7732	6.6	19.52727161252
11	8048	6.7	19.439289316732
11	8364	6.8	19.48572699272
11	8680	6.9	19.491807239989
11	8996	7	19.540430109926
11	9312	7.1	19.622464655564
11	9721	7.2	19.54741150328
11	10130	7.3	19.649093134316
11	10539	7.4	19.695639618694
11	10948	7.5	19.592364930465
11	11357	7.6	19.602618349586
11	11766	7.7	19.624408257557
11	12175	7.8	19.619845456635
11	12584	7.9	19.693405839032
11	12993	8	19.630756367635
11	13402	8.1	19.671451010806
11	13916	8.2	19.580562428896
11	14430	8.3	19.744420589339
11	14944	8.4	19.783167515534
11	15458	8.5	19.700208070187
11	15972	8.6	19.697870283748
11	16486	8.7	19.664067587308
11	17000	8.8	19.794526574244
11	17514	8.9	19.806635599565
11	18028	9	19.762602184407
11	18542	9.1	19.748259702881
11	19173	9.2	19.806646855037
11	19804	9.3	19.692875262537
11	20435	9.4	19.75240286781
11	21066	9.5	19.78807966841
11	21697	9.6	19.738279105077
11	22328	9.7	19.748698203316
11	22959	9.8	19.724974839264
11	23590	9.9	19.737565408819
11	24221	10	19.706723414231
11	24852	10.1	19.839113636759
11	25483	10.2	19.883005179834
11	26114	10.3	19.870518753131
11	26745	10.4	19.816735844628
11	27376	10.5	19.8189803287
11	28007	10.6	19.691492922489
11	28638	10.7	19.798770257637
11	29269	10.8	19.718325805364
11	29900	10.9	19.864379603511
11	30531	11	19.808730713631
11	31162	11.1	19.823748710122
11	31793	11.2	19.796093728777
11	32424	11.3	19.841492991328
11	33055	11.4	19.78402882682
11	33686	11.5	19.817119277539
11	34317	11.6	19.778164618583
11	34948	11.7	19.839832898207
11	35579	11.8	19.844700743152
11	36210	11.9	19.822313764223
11	36841	12	19.943182193308
11	37472	12.1	19.959948797956
11	38103	12.2	19.824677027677
11	38734	12.3	19.862831686294
11	39365	12.4	19.803413875775
11	39996	12.5	19.864940910731
11	40627	12.6	19.960240644467
11	41258	12.7	19.876310297132
11	41889	12.8	19.830891546569
11	42520	12.9	19.836502468929
11	43151	13	19.790837812635
11	43782	13.1	19.883147704129
11	44413	13.2	19.942221668456
11	45044	13.3	19.915940660916
11	45675	13.4	19.921873239144
11	46306	13.5	19.953610055039
11	46937	13.6	19.907722249842
11	47568	13.7	19.873902345392
11	48199	13.8	19.840143218084
11	48830	13.9	19.938605234388
11	49461	14	19.888834889187
11	50092	14.1	20.001356143054
11	50723	14.2	19.932348954511
11	51354	14.3	19.914400917789
11	51985	14.4	19.949975313586
11	52616	14.5	19.878039944505
11	53247	14.6	19.9271370738
11	53878	14.7	19.988142500842
11	54509	14.8	19.870067190223
11	55140	14.9	19.940001074489
11	55771	15	19.893400542691
11	56402	15.1	19.8838022271
11	57033	15.2	19.954334190389
11	57664	15.3	19.997533823205
11	58295	15.4	20.026347679669
11	58926	15.5	19.927502787942
11	59557	15.6	20.000398889074
11	60188	15.7	20.026346732875
11	60819	15.8	20.024977648167
11	61450	15.9	19.932350971196
11	62081	16	19.942727242302
11	62712	16.1	19.913954472186
11	63343	16.2	19.998935646423
11	63974	16.3	19.96047311597
11	64605	16.4	19.962198602931
11	65236	16.5	20.054419432409
11	65867	16.6	20.0006157903
11	66498	16.7	19.985355766859
11	67129	16.8	19.989560250056
11	67760	16.9	20.06356727269
11	68391	17	20.035027197412
11	69022	17.1	20.041436561967
11	69653	17.2	19.979057463901
11	70284	17.3	20.021116224705
11	70915	17.4	19.910458985944
11	71546	17.5	19.993554424726
11	72177	17.6	19.910216620358
11	72808	17.7	19.970801631867
11	73439	17.8	20.086061099247
11	74070	17.9	19.983688543996
11	74701	18	19.988863946759
11	75332	18.1	20.017073845416
11	75963	18.2	19.976750858489
11	76594	18.3	19.904918291443
11	77225	18.4	19.925428865197
11	77856	18.5	19.987484869529
11	78487	18.6	19.976458999813
11	79118	18.7	20.039960175827
11	79749	18.8	19.973443338365
11	80380	18.9	19.974937127084
11	81011	19	20.019269250377
11	81642	19.1	20.039210608286
11	82273	19.2	19.965769545217
11	82904	19.3	19.979129942376
11	83535	19.4	20.007024449823
11	84166	19.5	19.985367931182
11	84797	19.6	20.037179689113
11	85428	19.7	20.045116910592
11	85942	19.8	20.106005036973
11	86456	19.9	20.078695245648
11	86970	20	20.089356631732
11	87484	20.1	20.063470651445
11	87998	20.2	20.063500591505
11	88512	20.3	20.045742414456
11	89026	20.4	20.108936816875
11	89540	20.5	20.039601043474
11	90054	20.6	20.065252654497
11	90568	20.7	20.037820221419
11	91082	20.8	20.028720202583
11	91596	20.9	20.036616797897
10	102	1.1	416.30025728988
10	133	1.2	416.30025728988
10	164	1.3	414.43953222264
10	195	1.4	412.5798754869
10	226	1.5	410.70719517995
10	257	1.6	408.84070981208
10	288	1.7	406.97852954085
10	319	1.8	405.1086049943
10	350	1.9	403.23830519219
10	381	2	401.36424217435
10	412	2.1	399.48393432013
10	476	2.2	397.6038940778
10	540	2.3	395.73153113981
10	604	2.4	393.83970138601
10	668	2.5	391.94653320578
10	732	2.6	390.05462963976
10	796	2.7	388.1706749755
10	860	2.8	386.27251799364
10	924	2.9	384.37995746474
10	988	3	382.48437320835
10	1052	3.1	380.57742564768
10	1161	3.2	378.67486326366
10	1270	3.3	376.76863660096
10	1379	3.4	374.86171022104
10	1488	3.5	372.95347019879
10	1597	3.6	371.03630354201
10	1706	3.7	369.11991371323
10	1815	3.8	367.21056139449
10	1924	3.9	365.2929919645
10	2033	4	363.38249916593
10	2142	4.1	361.46592916047
10	2308	4.2	359.55009063452
10	2474	4.3	357.62634159443
10	2640	4.4	355.69944173332
10	2806	4.5	353.77245307741
10	2972	4.6	351.85384818105
10	3138	4.7	349.9289031116
10	3304	4.8	347.99624013387
10	3470	4.9	346.07004165733
10	3636	5	344.13982301667
10	3802	5.1	342.20511658025
10	4037	5.2	340.26782179278
10	4272	5.3	338.3309420995
10	4507	5.4	336.39102859902
10	4742	5.5	334.44613266462
10	4977	5.6	332.50203531927
10	5212	5.7	330.56133117743
10	5447	5.8	328.6200233286
10	5682	5.9	326.67821186124
10	5917	6	324.73551694764
10	6152	6.1	322.79035822957
10	6468	6.2	320.84549832599
10	6784	6.3	318.90618527012
10	7100	6.4	316.9603070404
10	7416	6.5	315.00942145039
10	7732	6.6	313.05549404086
10	8048	6.7	311.10286539274
10	8364	6.8	309.15903453033
10	8680	6.9	307.21056013459
10	8996	7	305.2614777448
10	9312	7.1	303.30753331332
10	9721	7.2	301.34538584113
10	10130	7.3	299.39074330553
10	10539	7.4	297.4259331198
10	10948	7.5	295.45646852045
10	11357	7.6	293.49733086892
10	11766	7.7	291.5371679272
10	12175	7.8	289.57482610462
10	12584	7.9	287.6129405391
10	12993	8	285.64369930646
10	13402	8.1	283.68072270489
10	13916	8.2	281.7136768443
10	14430	8.3	279.75571938338
10	14944	8.4	277.78137693307
10	15458	8.5	275.80315998561
10	15972	8.6	273.83323856416
10	16486	8.7	271.86355090957
10	17000	8.8	269.89724335408
10	17514	8.9	267.91789055806
10	18028	9	265.93732692059
10	18542	9.1	263.96116640249
10	19173	9.2	261.98644006019
10	19804	9.3	260.00587529723
10	20435	9.4	258.03668711956
10	21066	9.5	256.06154648167
10	21697	9.6	254.0828383437
10	22328	9.7	252.10911001083
10	22959	9.8	250.1343398207
10	23590	9.9	248.16194184729
10	24221	10	246.18828488044
10	24852	10.1	244.21771195746
10	25483	10.2	242.23390068012
10	26114	10.3	240.2457004699
10	26745	10.4	238.25874883936
10	27376	10.5	236.27717522834
10	28007	10.6	234.29537718024
10	28638	10.7	232.3263272296
10	29269	10.8	230.34655008664
10	29900	10.9	228.37481698308
10	30531	11	226.38847923653
10	31162	11.1	224.40770609822
10	31793	11.2	222.42543123603
10	32424	11.3	220.44592173246
10	33055	11.4	218.46187253167
10	33686	11.5	216.48356945742
10	34317	11.6	214.50195750505
10	34948	11.7	212.52424082204
10	35579	11.8	210.54035762219
10	36210	11.9	208.5559876624
10	36841	12	206.57385628756
10	37472	12.1	204.57963867958
10	38103	12.2	202.58374449572
10	38734	12.3	200.60137680646
10	39365	12.4	198.61519384382
10	39996	12.5	196.63495236248
10	40627	12.6	194.64855848804
10	41258	12.7	192.652635121
10	41889	12.8	190.66510436528
10	42520	12.9	188.68211525548
10	43151	13	186.69856508175
10	43782	13.1	184.71958114327
10	44413	13.2	182.73136668135
10	45044	13.3	180.73724512101
10	45675	13.4	178.74575152884
10	46306	13.5	176.75366470877
10	46937	13.6	174.75840436723
10	47568	13.7	172.7677325747
10	48199	13.8	170.78044260201
10	48830	13.9	168.79652837173
10	49461	14	166.80276843655
10	50092	14.1	164.81398528481
10	50723	14.2	162.81395057534
10	51354	14.3	160.82081623659
10	51985	14.4	158.82947661096
10	52616	14.5	156.83457972522
10	53247	14.6	154.84687601349
10	53878	14.7	152.85426283652
10	54509	14.8	150.8555494246
10	55140	14.9	148.86864294808
10	55771	15	146.87474343593
10	56402	15.1	144.88550374187
10	57033	15.2	142.89722383095
10	57664	15.3	140.90189107952
10	58295	15.4	138.90223858275
10	58926	15.5	136.8997048457
10	59557	15.6	134.90705509915
10	60188	15.7	132.90711611025
10	60819	15.8	130.90458246787
10	61450	15.9	128.90218572706
10	62081	16	126.90905118665
10	62712	16.1	124.91487907147
10	63343	16.2	122.92358408815
10	63974	16.3	120.92379141614
10	64605	16.4	118.92784480312
10	65236	16.5	116.93172565012
10	65867	16.6	114.92638487941
10	66498	16.7	112.92642420148
10	67129	16.8	110.9279894489
10	67760	16.9	108.92913426922
10	68391	17	106.92287876064
10	69022	17.1	104.9194771156
10	69653	17.2	102.91543456644
10	70284	17.3	100.91762961238
10	70915	17.4	98.915618994435
10	71546	17.5	96.924673542107
10	72177	17.6	94.92541896511
10	72808	17.7	92.934497748118
10	73439	17.8	90.93751833562
10	74070	17.9	88.929013557857
10	74701	18	86.93074551916
10	75332	18.1	84.931959966296
10	75963	18.2	82.930353565883
10	76594	18.3	80.932779260736
10	77225	18.4	78.942387849906
10	77856	18.5	76.949945485175
10	78487	18.6	74.951297833077
10	79118	18.7	72.953752712325
10	79749	18.8	70.94985779433
10	80380	18.9	68.95261422451
10	81011	19	66.955221283354
10	81642	19.1	64.95339535352
10	82273	19.2	62.949575388497
10	82904	19.3	60.953099159278
10	83535	19.4	58.955286957745
10	84166	19.5	56.954685446193
10	84797	19.6	54.956249477249
10	85428	19.7	52.952632593898
10	85942	19.8	50.948222028441
10	86456	19.9	48.937722957521
10	86970	20	46.929954727958
10	87484	20.1	44.921120413572
10	87998	20.2	42.914874566623
10	88512	20.3	40.908625725818
10	89026	20.4	38.904152613131
10	89540	20.5	36.893360379011
10	90054	20.6	34.889501372439
10	90568	20.7	32.883077334174
10	91082	20.8	30.879396400824
10	91596	20.9	28.876625423448
9	102	1.1	23.397598627787
9	133	1.2	23.397598627787
9	164	1.3	23.414965770587
9	195	1.4	23.432322942078
9	226	1.5	23.449801669528
9	257	1.6	23.467222576296
9	288	1.7	23.484603301294
9	319	1.8	23.502056307757
9	350	1.9	23.519512816682
9	381	2	23.537004449712
9	412	2.1	23.554554369143
9	476	2.2	23.572101790808
9	540	2.3	23.589577556084
9	604	2.4	23.607235015569
9	668	2.5	23.624904967304
9	732	2.6	23.642563115718
9	796	2.7	23.660147072778
9	860	2.8	23.677863587668
9	924	2.9	23.695527867869
9	988	3	23.713220370136
9	1052	3.1	23.731018932202
9	1161	3.2	23.748776565068
9	1270	3.3	23.766568398609
9	1379	3.4	23.784366762984
9	1488	3.5	23.802177388286
9	1597	3.6	23.820071330646
9	1706	3.7	23.837958022454
9	1815	3.8	23.855779029414
9	1924	3.9	23.873676731071
9	2033	4	23.891508382741
9	2142	4.1	23.909396756234
9	2308	4.2	23.927278302437
9	2474	4.3	23.945233681703
9	2640	4.4	23.963218469267
9	2806	4.5	23.9812040856
9	2972	4.6	23.999111451819
9	3138	4.7	24.017077994266
9	3304	4.8	24.035116572082
9	3470	4.9	24.053094813248
9	3636	5	24.071110576758
9	3802	5.1	24.089168227267
9	4037	5.2	24.107250036241
9	4272	5.3	24.125327970919
9	4507	5.4	24.143434221744
9	4742	5.5	24.16158697629
9	4977	5.6	24.179732277178
9	5212	5.7	24.197845907481
9	5447	5.8	24.215965172504
9	5682	5.9	24.234089138069
9	5917	6	24.252221349311
9	6152	6.1	24.270376556558
9	6468	6.2	24.288528974809
9	6784	6.3	24.306629621363
9	7100	6.4	24.324791544197
9	7416	6.5	24.343000203404
9	7732	6.6	24.361237253541
9	8048	6.7	24.379462181643
9	8364	6.8	24.397604995302
9	8680	6.9	24.415791149543
9	8996	7	24.433982978518
9	9312	7.1	24.45222018753
9	9721	7.2	24.470533959911
9	10130	7.3	24.488777684702
9	10539	7.4	24.507116309613
9	10948	7.5	24.525498376657
9	11357	7.6	24.543784056771
9	11766	7.7	24.562079306466
9	12175	7.8	24.580394892823
9	12584	7.9	24.598706220688
9	12993	8	24.617086202932
9	13402	8.1	24.63540771402
9	13916	8.2	24.653767205681
9	14430	8.3	24.672041870444
9	14944	8.4	24.690469465082
9	15458	8.5	24.708933222474
9	15972	8.6	24.727319553283
9	16486	8.7	24.745703702221
9	17000	8.8	24.764056302886
9	17514	8.9	24.782530661761
9	18028	9	24.801016322067
9	18542	9.1	24.819460885704
9	19173	9.2	24.837892063411
9	19804	9.3	24.856377734222
9	20435	9.4	24.874757221274
9	21066	9.5	24.893192265824
9	21697	9.6	24.91166060776
9	22328	9.7	24.930082470511
9	22959	9.8	24.948514057473
9	23590	9.9	24.966923503267
9	24221	10	24.98534469992
9	24852	10.1	25.003737111542
9	25483	10.2	25.022253083809
9	26114	10.3	25.040810020335
9	26745	10.4	25.0593553032
9	27376	10.5	25.077850390129
9	28007	10.6	25.096347571851
9	28638	10.7	25.114725768757
9	29269	10.8	25.133204088289
9	29900	10.9	25.151607328497
9	30531	11	25.170146881653
9	31162	11.1	25.188634497343
9	31793	11.2	25.207136129425
9	32424	11.3	25.225611950936
9	33055	11.4	25.24413014387
9	33686	11.5	25.26259470513
9	34317	11.6	25.28109014992
9	34948	11.7	25.299549238077
9	35579	11.8	25.318065881635
9	36210	11.9	25.336587068385
9	36841	12	25.355087361223
9	37472	12.1	25.373700461343
9	38103	12.2	25.392329209843
9	38734	12.3	25.41083170833
9	39365	12.4	25.429369816805
9	39996	12.5	25.447852470256
9	40627	12.6	25.466392547284
9	41258	12.7	25.485021568166
9	41889	12.8	25.503572256315
9	42520	12.9	25.522080554853
9	43151	13	25.5405940901
9	43782	13.1	25.55906500623
9	44413	13.2	25.577622075776
9	45044	13.3	25.596234279432
9	45675	13.4	25.614821954854
9	46306	13.5	25.63341516719
9	46937	13.6	25.6520379997
9	47568	13.7	25.670618004827
9	48199	13.8	25.68916644562
9	48830	13.9	25.707683378802
9	49461	14	25.726292207216
9	50092	14.1	25.744854584648
9	50723	14.2	25.763521978889
9	51354	14.3	25.782124968278
9	51985	14.4	25.800711206648
9	52616	14.5	25.819330646831
9	53247	14.6	25.837882949271
9	53878	14.7	25.856481074378
9	54509	14.8	25.875136136242
9	55140	14.9	25.893680997659
9	55771	15	25.912291128821
9	56402	15.1	25.930857767406
9	57033	15.2	25.949415447822
9	57664	15.3	25.968038956172
9	58295	15.4	25.986702783018
9	58926	15.5	26.00539350202
9	59557	15.6	26.02399196845
9	60188	15.7	26.04265846928
9	60819	15.8	26.061349187399
9	61450	15.9	26.080038627743
9	62081	16	26.098641619014
9	62712	16.1	26.117254294525
9	63343	16.2	26.135840116225
9	63974	16.3	26.154505251401
9	64605	16.4	26.17313448925
9	65236	16.5	26.191765337507
9	65867	16.6	26.210482256057
9	66498	16.7	26.229148959322
9	67129	16.8	26.247801420309
9	67760	16.9	26.266457805368
9	68391	17	26.285183261656
9	69022	17.1	26.303882081308
9	69653	17.2	26.322586882862
9	70284	17.3	26.341233465603
9	70915	17.4	26.359919302055
9	71546	17.5	26.378501861395
9	72177	17.6	26.397161974242
9	72808	17.7	26.415744307381
9	73439	17.8	26.4343831849
9	74070	17.9	26.453129634821
9	74701	18	26.471780539779
9	75332	18.1	26.490436274973
9	75963	18.2	26.509118338646
9	76594	18.3	26.527762768617
9	77225	18.4	26.546340156792
9	77856	18.5	26.564936687616
9	78487	18.6	26.583591135709
9	79118	18.7	26.602235293286
9	79749	18.8	26.620938716919
9	80380	18.9	26.63958005996
9	81011	19	26.658222797164
9	81642	19.1	26.676906909823
9	82273	19.2	26.69560963388
9	82904	19.3	26.71424381492
9	83535	19.4	26.732890465305
9	84166	19.5	26.751563149814
9	84797	19.6	26.770215622154
9	85428	19.7	26.788916450741
9	85942	19.8	26.807624687187
9	86456	19.9	26.826389750914
9	86970	20	26.845129326236
9	87484	20.1	26.863878851899
9	87998	20.2	26.88260421801
9	88512	20.3	26.901329612064
9	89026	20.4	26.920038432298
9	89540	20.5	26.938806232273
9	90054	20.6	26.957509320725
9	90568	20.7	26.976236349991
9	91082	20.8	26.994937776391
9	91596	20.9	27.013630709685
20	540	2.3	0.973
20	604	2.4	3.9493217556349
20	668	2.5	1.5642591043708
20	732	2.6	7.715947804538
20	796	2.7	0.973
20	860	2.8	5.7168077530718
20	924	2.9	0.9255583504995
20	988	3	6.3360312818926
20	1052	3.1	2.7563797347059
20	1161	3.2	1.7717133352182
20	1270	3.3	2.8662247389176
20	1379	3.4	0.973
20	1488	3.5	4.052163542891
20	1597	3.6	3.5764279558664
20	1706	3.7	1.5353677513576
20	1815	3.8	4.0697834758548
20	1924	3.9	3.1142327240803
20	2033	4	4.2933724132893
20	2142	4.1	1.3033908198865
20	2308	4.2	1.3468059163896
20	2474	4.3	6.9652281154718
20	2640	4.4	0.973
20	2806	4.5	1.7247805963463
20	2972	4.6	7.8785548242379
20	3138	4.7	2.3158888662039
20	3304	4.8	1.4862576248451
20	3470	4.9	0.973
20	3636	5	7.8852971678717
20	3802	5.1	0.973
20	4037	5.2	3.8415079334391
20	4272	5.3	2.2555727417983
20	4507	5.4	0.973
20	4742	5.5	2.9308340594758
20	4977	5.6	2.676741603327
20	5212	5.7	2.3435091949189
20	5447	5.8	3.3113058971294
20	5682	5.9	3.6855778969204
20	5917	6	1.8499471422708
20	6152	6.1	3.3490693698399
20	6468	6.2	6.2905998955622
20	6784	6.3	0.973
20	7100	6.4	5.0670044028224
20	7416	6.5	3.1673517626818
20	7732	6.6	3.5468210972353
20	8048	6.7	0.973
20	8364	6.8	4.5241682400322
20	8680	6.9	3.2412360749216
20	8996	7	0.973
20	9312	7.1	3.0438308799174
20	9721	7.2	1.1973936593627
20	10130	7.3	7.5211895707833
20	10539	7.4	0.973
20	10948	7.5	3.4885537297809
20	11357	7.6	6.4871421989531
20	11766	7.7	0.973
20	12175	7.8	7.5439620329895
20	12584	7.9	0.973
20	12993	8	6.2839646235029
20	13402	8.1	1.7275102238806
20	13916	8.2	1.3422289047959
20	14430	8.3	2.4522991832264
20	14944	8.4	6.5456110256854
20	15458	8.5	0.973
20	15972	8.6	5.3954373249053
20	16486	8.7	0.973
20	17000	8.8	5.5951114663669
20	17514	8.9	0.973
20	18028	9	7.4156034212048
20	18542	9.1	0.973
20	19173	9.2	1.7697698055526
20	19804	9.3	3.1276656749143
20	20435	9.4	1.1465644732891
20	21066	9.5	4.0791141301204
20	21697	9.6	1.2531830427257
20	22328	9.7	3.7071414098574
20	22959	9.8	1.3612932880229
20	23590	9.9	6.7481899136602
20	24221	10	3.0300499656436
20	24852	10.1	3.8939746673024
20	25483	10.2	2.9887072507077
20	26114	10.3	1.4208253215493
20	26745	10.4	4.1460773304492
20	27376	10.5	3.1960710024331
20	28007	10.6	0.973
20	28638	10.7	6.2748919764174
20	29269	10.8	2.7671472238645
20	29900	10.9	4.7259816158227
20	30531	11	1.9465890538438
20	31162	11.1	1.3224799381333
20	31793	11.2	0.973
20	32424	11.3	3.2298444988916
20	33055	11.4	2.025057331577
20	33686	11.5	3.5300120340475
20	34317	11.6	3.4333383201693
20	34948	11.7	6.8147510180414
20	35579	11.8	2.4981620248617
20	36210	11.9	2.2278103828599
20	36841	12	2.1934137631926
20	37472	12.1	3.3355370230751
20	38103	12.2	0.973
20	38734	12.3	2.3919594251876
20	39365	12.4	4.1505923495938
20	39996	12.5	0.973
20	40627	12.6	3.5696783587455
20	41258	12.7	7.2074942191731
20	41889	12.8	0.973
20	42520	12.9	5.2037318889127
20	43151	13	0.973
20	43782	13.1	0.8433671814145
20	44413	13.2	5.9795139516715
20	45044	13.3	0.973
20	45675	13.4	7.1604610407532
20	46306	13.5	0.973
20	46937	13.6	5.7306310005663
20	47568	13.7	0.86889442679695
20	48199	13.8	4.8999494121451
20	48830	13.9	4.3608505462494
20	49461	14	3.1476447993644
20	50092	14.1	2.7987737704681
20	50723	14.2	0.973
20	51354	14.3	5.2714171216282
20	51985	14.4	1.8437268423212
20	52616	14.5	1.1568770598563
20	53247	14.6	2.9694856515513
20	53878	14.7	3.4150211478802
20	54509	14.8	8.0595345720423
20	55140	14.9	0.973
20	55771	15	2.6772861769514
20	56402	15.1	3.2636351650746
20	57033	15.2	2.5315541593215
20	57664	15.3	6.3152177766377
20	58295	15.4	0.973
20	58926	15.5	1.5183930276497
20	59557	15.6	7.7051221053316
20	60188	15.7	0.93086660125609
20	60819	15.8	2.8575309803203
20	61450	15.9	1.3897499094773
20	62081	16	5.1340348846814
20	62712	16.1	2.1122192094075
20	63343	16.2	4.5554714454223
20	63974	16.3	0.973
20	64605	16.4	3.8904178112289
20	65236	16.5	0.973
20	65867	16.6	3.8596777159547
20	66498	16.7	6.7880643957116
20	67129	16.8	0.973
20	67760	16.9	1.9527887022973
20	68391	17	4.7776602303557
20	69022	17.1	4.9868095807929
20	69653	17.2	3.4549858588822
20	70284	17.3	1.2053618617671
20	70915	17.4	0.96482328946515
20	71546	17.5	5.6903207528362
20	72177	17.6	1.5958962774573
20	72808	17.7	4.5102844711964
20	73439	17.8	2.4176766650053
20	74070	17.9	3.9990551728038
20	74701	18	0.973
20	75332	18.1	5.7183294839434
20	75963	18.2	3.0046069827281
20	76594	18.3	0.973
20	77225	18.4	7.9459617381101
20	77856	18.5	0.973
20	78487	18.6	8.2704918130979
20	79118	18.7	0.973
20	79749	18.8	6.0508052236069
20	80380	18.9	2.8355477312927
20	81011	19	3.2065066098132
20	81642	19.1	3.0188064478335
20	82273	19.2	1.5604668083172
20	82904	19.3	2.5065279745168
20	83535	19.4	1.3188793634743
20	84166	19.5	3.9541966331539
20	84797	19.6	5.6621039530089
20	85428	19.7	0.973
20	85942	19.8	1.8982452151338
20	86456	19.9	2.0575486529355
20	86970	20	6.7478057538552
20	87484	20.1	4.380072563839
20	87998	20.2	1.9502641930815
20	88512	20.3	0.973
20	89026	20.4	4.0705149010243
20	89540	20.5	1.5038087289126
20	90054	20.6	1.8812163347218
20	90568	20.7	2.4030513160808
20	91082	20.8	8.0845085808683
20	91596	20.9	0.87715655230534
20	92110	21	2.6123968478679
20	92519	21.1	0.973
20	92928	21.2	5.4628969286381
20	93337	21.3	2.8831976627439
20	93746	21.4	1.1047345418897
20	94155	21.5	6.0562059922685
20	94564	21.6	0.973
19	540	2.3	-0.76080300819594
19	604	2.4	0.23457628507167
19	668	2.5	-0.25917679704726
19	732	2.6	1.0088997515617
19	796	2.7	-0.95559828875121
19	860	2.8	0.59839334359857
19	924	2.9	-0.39205927990842
19	988	3	0.7241705096094
19	1052	3.1	-0.014941513189122
19	1161	3.2	-0.21779627609067
19	1270	3.3	0.0084425935987298
19	1379	3.4	-0.52358425611164
19	1488	3.5	0.25482881995849
19	1597	3.6	0.15571713009852
19	1706	3.7	-0.26592349912971
19	1815	3.8	0.25779843877533
19	1924	3.9	0.059931490896261
19	2033	4	0.30230226696006
19	2142	4.1	-0.31449914204423
19	2308	4.2	-0.30497775936965
19	2474	4.3	0.85220906871836
19	2640	4.4	-1.0144012221368
19	2806	4.5	-0.22585265839005
19	2972	4.6	1.0422479051398
19	3138	4.7	-0.10579560494516
19	3304	4.8	-0.27661912429611
19	3470	4.9	-0.51164407441394
19	3636	5	1.042379797576
19	3802	5.1	-0.58003287066239
19	4037	5.2	0.20981877548621
19	4272	5.3	-0.11761828481688
19	4507	5.4	-0.49593560865613
19	4742	5.5	0.023630227870299
19	4977	5.6	-0.028945077559897
19	5212	5.7	-0.097750482335677
19	5447	5.8	0.10258400056046
19	5682	5.9	0.17941650608552
19	5917	6	-0.20030567231586
19	6152	6.1	0.11006873596923
19	6468	6.2	0.71465619390366
19	6784	6.3	-0.47192128733734
19	7100	6.4	0.46207621400246
19	7416	6.5	0.069582376349722
19	7732	6.6	0.14731252100319
19	8048	6.7	-0.66753458587918
19	8364	6.8	0.35049731510224
19	8680	6.9	0.085148173361098
19	8996	7	-0.50383699133526
19	9312	7.1	0.046001383592369
19	9721	7.2	-0.3356037388323
19	10130	7.3	0.96752313033214
19	10539	7.4	-0.8229957084637
19	10948	7.5	0.13825506872962
19	11357	7.6	0.75369572876951
19	11766	7.7	-0.98912116819992
19	12175	7.8	0.97180111967027
19	12584	7.9	-1.1528535545803
19	12993	8	0.71491284340151
19	13402	8.1	-0.22647464578039
19	13916	8.2	-0.30566453537904
19	14430	8.3	-0.075367820542276
19	14944	8.4	0.76785494897049
19	15458	8.5	-0.53650013352744
19	15972	8.6	0.53032517277167
19	16486	8.7	-0.61082177148201
19	17000	8.8	0.57180883400143
19	17514	8.9	-0.71051389169877
19	18028	9	0.94602447436191
19	18542	9.1	-0.4826147092972
19	19173	9.2	-0.21745650374797
19	19804	9.3	0.063498236495079
19	20435	9.4	-0.34606154391078
19	21066	9.5	0.26084818965757
19	21697	9.6	-0.32384647896979
19	22328	9.7	0.18440274293535
19	22959	9.8	-0.30121147239118
19	23590	9.9	0.81088094860316
19	24221	10	0.042140188324282
19	24852	10.1	0.21972091668285
19	25483	10.2	0.032719475147296
19	26114	10.3	-0.2903691840125
19	26745	10.4	0.27170077429616
19	27376	10.5	0.075313102989476
19	28007	10.6	-1.1008959472645
19	28638	10.7	0.7132930071559
19	29269	10.8	-0.011900706798791
19	29900	10.9	0.39105942156169
19	30531	11	-0.18206425758546
19	31162	11.1	-0.31042766873725
19	31793	11.2	-0.54125462991653
19	32424	11.3	0.085843523684908
19	33055	11.4	-0.16355022971982
19	33686	11.5	0.14814232897479
19	34317	11.6	0.12759373809676
19	34948	11.7	0.82220176199918
19	35579	11.8	-0.068434509378861
19	36210	11.9	-0.1239142935956
19	36841	12	-0.13067287132145
19	37472	12.1	0.10501078972595
19	38103	12.2	-0.47908949682025
19	38734	12.3	-0.088309368537729
19	39365	12.4	0.27476788598577
19	39996	12.5	-0.55408996392504
19	40627	12.6	0.15619889772495
19	41258	12.7	0.90329528863077
19	41889	12.8	-0.5945512213977
19	42520	12.9	0.49035520614126
19	43151	13	-0.59019018549009
19	43782	13.1	-0.40874835085123
19	44413	13.2	0.65281266509555
19	45044	13.3	-0.58020852061453
19	45675	13.4	0.89464244695847
19	46306	13.5	-0.82151418479626
19	46937	13.6	0.60074250719044
19	47568	13.7	-0.40389095603022
19	48199	13.8	0.42886492770631
19	48830	13.9	0.31587888204957
19	49461	14	0.065239431313238
19	50092	14.1	-0.0067212573019759
19	50723	14.2	-1.1450228642905
19	51354	14.3	0.50719115489628
19	51985	14.4	-0.20185642703435
19	52616	14.5	-0.34362960646394
19	53247	14.6	0.032480471581202
19	53878	14.7	0.12445181000512
19	54509	14.8	1.0783195673488
19	55140	14.9	-0.70842209919359
19	55771	15	-0.029625586885942
19	56402	15.1	0.091430434724309
19	57033	15.2	-0.059893248206926
19	57664	15.3	0.71841300488448
19	58295	15.4	-0.87392446706069
19	58926	15.5	-0.26879819754978
19	59557	15.6	1.0062450686936
19	60188	15.7	-0.39151092756075
19	60819	15.8	0.0069283341989035
19	61450	15.9	-0.29607921370772
19	62081	16	0.47669996723997
19	62712	16.1	-0.14729341766795
19	63343	16.2	0.35609526426995
19	63974	16.3	-0.63456832738591
19	64605	16.4	0.2206449839985
19	65236	16.5	-0.6618205529405
19	65867	16.6	0.21623745465188
19	66498	16.7	0.81722948565147
19	67129	16.8	-0.79066505825612
19	67760	16.9	-0.1786814048188
19	68391	17	0.40518040603494
19	69022	17.1	0.44601267816031
19	69653	17.2	0.12907130694948
19	70284	17.3	-0.33479071385226
19	70915	17.4	-0.38399752867409
19	71546	17.5	0.59132813122126
19	72177	17.6	-0.25393960017247
19	72808	17.7	0.34709884678016
19	73439	17.8	-0.084726539440467
19	74070	17.9	0.24083948971239
19	74701	18	-1.0624273607042
19	75332	18.1	0.598462867341
19	75963	18.2	0.037159500503918
19	76594	18.3	-0.56052249069324
19	77225	18.4	1.0545667208498
19	77856	18.5	-1.1857524925377
19	78487	18.6	1.1220653160242
19	79118	18.7	-0.98115450988992
19	79749	18.8	0.66620484767483
19	80380	18.9	0.0018173508811614
19	81011	19	0.078180396952661
19	81642	19.1	0.03927305720282
19	82273	19.2	-0.26136709155981
19	82904	19.3	-0.065545100416067
19	83535	19.4	-0.31066328592132
19	84166	19.5	0.23424378915227
19	84797	19.6	0.58402086698916
19	85428	19.7	-0.75330228190872
19	85942	19.8	-0.19034206471403
19	86456	19.9	-0.15692388312893
19	86970	20	0.81015873937869
19	87484	20.1	0.31936297062785
19	87998	20.2	-0.18146077119749
19	88512	20.3	-0.54640084123239
19	89026	20.4	0.25765772927553
19	89540	20.5	-0.27255467346404
19	90054	20.6	-0.19395584948359
19	90568	20.7	-0.085553787043331
19	91082	20.8	1.0830452507362
19	91596	20.9	-0.40282972208221
19	92110	21	-0.044110527820891
19	92519	21.1	-0.64298196632883
19	92928	21.2	0.54565380348361
19	93337	21.3	0.01214872295968
19	93746	21.4	-0.35505924324973
19	94155	21.5	0.66620300556533
19	94564	21.6	-0.72927386055234
18	476	2.2	20.075023517788
18	540	2.3	19.998943216968
18	604	2.4	20.022400845475
18	668	2.5	19.996483165771
18	732	2.6	20.097373140927
18	796	2.7	20.001813312052
18	860	2.8	20.061652646412
18	924	2.9	20.022446718421
18	988	3	20.094863769382
18	1052	3.1	20.093369618063
18	1161	3.2	20.071589990454
18	1270	3.3	20.072434249814
18	1379	3.4	20.020075824203
18	1488	3.5	20.045558706198
18	1597	3.6	20.061130419208
18	1706	3.7	20.034538069295
18	1815	3.8	20.060317913173
18	1924	3.9	20.066311062262
18	2033	4	20.096541288958
18	2142	4.1	20.065091374754
18	2308	4.2	20.034593598817
18	2474	4.3	20.119814505689
18	2640	4.4	20.018374383475
18	2806	4.5	19.995789117636
18	2972	4.6	20.10001390815
18	3138	4.7	20.089434347656
18	3304	4.8	20.061772435226
18	3470	4.9	20.010608027785
18	3636	5	20.114846007542
18	3802	5.1	20.056842720476
18	4037	5.2	20.077824598025
18	4272	5.3	20.066062769543
18	4507	5.4	20.016469208677
18	4742	5.5	20.018832231464
18	4977	5.6	20.015937723708
18	5212	5.7	20.006162675475
18	5447	5.8	20.016421075531
18	5682	5.9	20.034362726139
18	5917	6	20.014332158908
18	6152	6.1	20.025339032505
18	6468	6.2	20.096804651895
18	6784	6.3	20.049612523161
18	7100	6.4	20.095820144562
18	7416	6.5	20.102778382197
18	7732	6.6	20.117509634297
18	8048	6.7	20.050756175709
18	8364	6.8	20.085805907219
18	8680	6.9	20.094320724555
18	8996	7	20.043937025422
18	9312	7.1	20.048537163781
18	9721	7.2	20.014976789898
18	10130	7.3	20.111729102931
18	10539	7.4	20.029429532085
18	10948	7.5	20.043255038958
18	11357	7.6	20.118624611835
18	11766	7.7	20.019712495015
18	12175	7.8	20.116892606982
18	12584	7.9	20.001607251524
18	12993	8	20.073098535864
18	13402	8.1	20.050451071286
18	13916	8.2	20.019884617748
18	14430	8.3	20.012347835694
18	14944	8.4	20.089133330591
18	15458	8.5	20.035483317238
18	15972	8.6	20.088515834515
18	16486	8.7	20.027433657367
18	17000	8.8	20.084614540767
18	17514	8.9	20.013563151597
18	18028	9	20.108165599033
18	18542	9.1	20.059904128104
18	19173	9.2	20.038158477729
18	19804	9.3	20.044508301378
18	20435	9.4	20.009902146987
18	21066	9.5	20.035986965953
18	21697	9.6	20.003602318056
18	22328	9.7	20.022042592349
18	22959	9.8	19.99192144511
18	23590	9.9	20.073009539971
18	24221	10	20.077223558803
18	24852	10.1	20.099195650471
18	25483	10.2	20.102467597986
18	26114	10.3	20.073430679585
18	26745	10.4	20.100600757014
18	27376	10.5	20.108132067313
18	28007	10.6	19.998042472587
18	28638	10.7	20.069371773303
18	29269	10.8	20.068181702623
18	29900	10.9	20.107287644779
18	30531	11	20.08908121902
18	31162	11.1	20.058038452147
18	31793	11.2	20.003912989155
18	32424	11.3	20.012497341523
18	33055	11.4	19.996142318551
18	33686	11.5	20.010956551449
18	34317	11.6	20.023715925259
18	34948	11.7	20.105936101459
18	35579	11.8	20.099092650521
18	36210	11.9	20.086701221161
18	36841	12	20.073633934029
18	37472	12.1	20.084135013002
18	38103	12.2	20.036226063319
18	38734	12.3	20.027395126466
18	39365	12.4	20.054871915064
18	39996	12.5	19.999462918672
18	40627	12.6	20.015082808444
18	41258	12.7	20.105412337307
18	41889	12.8	20.045957215168
18	42520	12.9	20.094992735782
18	43151	13	20.035973717233
18	43782	13.1	19.995098882148
18	44413	13.2	20.060380148657
18	45044	13.3	20.002359296596
18	45675	13.4	20.091823541292
18	46306	13.5	20.009672122812
18	46937	13.6	20.069746373531
18	47568	13.7	20.029357277928
18	48199	13.8	20.072243770699
18	48830	13.9	20.103831658904
18	49461	14	20.110355602035
18	50092	14.1	20.109683476305
18	50723	14.2	19.995181189876
18	51354	14.3	20.045900305365
18	51985	14.4	20.025714662662
18	52616	14.5	19.991351702015
18	53247	14.6	19.994599749174
18	53878	14.7	20.007044930174
18	54509	14.8	20.114876886909
18	55140	14.9	20.04403467699
18	55771	15	20.041072118301
18	56402	15.1	20.050215161773
18	57033	15.2	20.044225836953
18	57664	15.3	20.116067137441
18	58295	15.4	20.028674690735
18	58926	15.5	20.00179487098
18	59557	15.6	20.102419377849
18	60188	15.7	20.063268285093
18	60819	15.8	20.063961118513
18	61450	15.9	20.034353197142
18	62081	16	20.082023193866
18	62712	16.1	20.0672938521
18	63343	16.2	20.102903378527
18	63974	16.3	20.039446545788
18	64605	16.4	20.061511044188
18	65236	16.5	19.995328988894
18	65867	16.6	20.016952734359
18	66498	16.7	20.098675682924
18	67129	16.8	20.019609177099
18	67760	16.9	20.001741036617
18	68391	17	20.04225907722
18	69022	17.1	20.086860345036
18	69653	17.2	20.099767475731
18	70284	17.3	20.066288404346
18	70915	17.4	20.027888651479
18	71546	17.5	20.087021464601
18	72177	17.6	20.061627504583
18	72808	17.7	20.096337389261
18	73439	17.8	20.087864735317
18	74070	17.9	20.111948684289
18	74701	18	20.005705948218
18	75332	18.1	20.065552234952
18	75963	18.2	20.069268185003
18	76594	18.3	20.013215935933
18	77225	18.4	20.118672608018
18	77856	18.5	20.000097358765
18	78487	18.6	20.112303890367
18	79118	18.7	20.014188439378
18	79749	18.8	20.080808924146
18	80380	18.9	20.080990659234
18	81011	19	20.088808698929
18	81642	19.1	20.092736004649
18	82273	19.2	20.066599295493
18	82904	19.3	20.060044785452
18	83535	19.4	20.028978456859
18	84166	19.5	20.052402835775
18	84797	19.6	20.110804922474
18	85428	19.7	20.035474694283
18	85942	19.8	20.016440487811
18	86456	19.9	20.000748099498
18	86970	20	20.081763973436
18	87484	20.1	20.113700270499
18	87998	20.2	20.095554193379
18	88512	20.3	20.040914109256
18	89026	20.4	20.066679882184
18	89540	20.5	20.039424414837
18	90054	20.6	20.020028829889
18	90568	20.7	20.011473451185
18	91082	20.8	20.119777976258
18	91596	20.9	20.07949500405
18	92110	21	20.075083951268
18	92519	21.1	20.010785754635
18	92928	21.2	20.065351134983
18	93337	21.3	20.066566007279
18	93746	21.4	20.031060082954
18	94155	21.5	20.097680383511
18	94564	21.6	20.024752997456
17	412	2.1	416.34012864494
17	476	2.2	416.34012864494
17	540	2.3	414.3326769314
17	604	2.4	412.33283305603
17	668	2.5	410.33064347699
17	732	2.6	408.33104560054
17	796	2.7	406.32135898106
17	860	2.8	404.32122810342
17	924	2.9	402.31511344329
17	988	3	400.31291927707
17	1052	3.1	398.30348358841
17	1161	3.2	396.29419731112
17	1270	3.3	394.28708894166
17	1379	3.4	392.27989614838
17	1488	3.5	390.2779390656
17	1597	3.6	388.2734337589
17	1706	3.7	386.26737132017
17	1815	3.8	384.26396804936
17	1924	3.9	382.25798685918
17	2033	4	380.25140636922
17	2142	4.1	378.24180293284
17	2308	4.2	376.23534440855
17	2474	4.3	374.23193558493
17	2640	4.4	372.22000488558
17	2806	4.5	370.21821794258
17	2972	4.6	368.21868946919
17	3138	4.7	366.20873877965
17	3304	4.8	364.19984601947
17	3470	4.9	362.19371938076
17	3636	5	360.19270905374
17	3802	5.1	358.18127519168
17	4037	5.2	356.17564151201
17	4272	5.3	354.16790969751
17	4507	5.4	352.16135403619
17	4742	5.5	350.15975760586
17	4977	5.6	348.15792487921
17	5212	5.7	346.15638159604
17	5447	5.8	344.15581579304
17	5682	5.9	342.1542241759
17	5917	6	340.15083843896
17	6152	6.1	338.14945570822
17	6468	6.2	336.14697231788
17	6784	6.3	334.13734254587
17	7100	6.4	332.1324318677
17	7416	6.5	330.12290054394
17	7732	6.6	328.11267341397
17	8048	6.7	326.10097319595
17	8364	6.8	324.0959481554
17	8680	6.9	322.08741823012
17	8996	7	320.07803684458
17	9312	7.1	318.07369370186
17	9721	7.2	316.06889055691
17	10130	7.3	314.06744336469
17	10539	7.4	312.05632118523
17	10948	7.5	310.05342875525
17	11357	7.6	308.04915380946
17	11766	7.7	306.0373420965
17	12175	7.8	304.03542134571
17	12584	7.9	302.02378282887
17	12993	8	300.02367255677
17	13402	8.1	298.01641333656
17	13916	8.2	296.01141880569
17	14430	8.3	294.00948084307
17	14944	8.4	292.00829653964
17	15458	8.5	289.99943388042
17	15972	8.6	287.99593608719
17	16486	8.7	285.98713517601
17	17000	8.8	283.98444232847
17	17514	8.9	281.97603153683
17	18028	9	279.97472570488
17	18542	9.1	277.96395986681
17	19173	9.2	275.9580200541
17	19804	9.3	273.95425475158
17	20435	9.4	271.94985448271
17	21066	9.5	269.94891474198
17	21697	9.6	267.94536658516
17	22328	9.7	265.94505681144
17	22959	9.8	263.9429030568
17	23590	9.9	261.94376134091
17	24221	10	259.93651102007
17	24852	10.1	257.92883930798
17	25483	10.2	255.91897044214
17	26114	10.3	253.90877438981
17	26745	10.4	251.90148195607
17	27376	10.5	249.89147258312
17	28007	10.6	247.88071009815
17	28638	10.7	245.88095629495
17	29269	10.8	243.8740697416
17	29900	10.9	241.86730219232
17	30531	11	239.85662414746
17	31162	11.1	237.84776669926
17	31793	11.2	235.84201344944
17	32424	11.3	233.84167260939
17	33055	11.4	231.84047335576
17	33686	11.5	229.84090956317
[...]
68	92519	21.1	1.0085832398618
68	92928	21.2	-0.87531938010361
68	93337	21.3	0.75131414453498
68	93746	21.4	-0.70827046053019
68	94155	21.5	0.57873689215633
68	94564	21.6	-0.31456986379347
68	94973	21.7	0.52649685277139
68	95289	21.8	-0.40197356583086
68	95605	21.9	0.0052242433885397
68	95921	22	0.35802174787968
68	96237	22.1	-0.49910890467
68	96553	22.2	0.5501927706413
68	96869	22.3	-0.97967414609155
68	97185	22.4	0.45185074445325
68	97501	22.5	0.53739178958349
68	97817	22.6	-0.58815072481519
68	98133	22.7	0.72882078152613
68	98449	22.8	-0.47040656544269
68	98765	22.9	0.27173020839694
68	99081	23	-0.14334464441056
68	99316	23.1	-0.45992553695104
68	99551	23.2	0.13019502642564
68	99786	23.3	-0.26747604208065
68	100021	23.4	0.53353714128026
68	100256	23.5	-0.095952950324865
68	100491	23.6	0.20024712192825
68	100726	23.7	-0.80237463878003
68	100892	23.8	0.7240504734451
68	101058	23.9	0.20511198809835
68	101224	24	-0.27230802571868
68	101390	24.1	-0.073425528570077
68	101556	24.2	-0.2027675230056
68	101722	24.3	-0.21369759035295
68	101888	24.4	0.55160794386175
68	102054	24.5	0.27717460989951
68	102220	24.6	0.19466588280629
68	102386	24.7	0.026756612141625
68	102552	24.8	-0.73120679608547
68	102718	24.9	0.62244970775208
68	102884	25	-0.83190116824113
68	102993	25.1	0.4714988664491
68	103102	25.2	-0.19820214430801
68	103211	25.3	0.14976948250549
68	103320	25.4	-0.50039986565242
68	103429	25.5	0.18287355506327
68	103538	25.6	0.3214508461533
68	103647	25.7	0.29259494231084
68	103711	25.8	-0.52400668638295
68	103775	25.9	-0.12340340060181
68	103839	26	-0.035564069938836
68	103903	26.1	0.54444164640735
68	103967	26.2	0.038932874426258
68	104031	26.3	-0.69959577294068
68	104095	26.4	0.039124669320891
68	104159	26.5	-0.11351787894966
68	104223	26.6	0.50747007497122
68	104287	26.7	0.32091610895005
68	104351	26.8	-0.88006571654699
68	104415	26.9	0.20903407044244
68	104479	27	-0.055901510757401
68	104510	27.1	0.23614152513911
68	104541	27.2	-0.23426669142211
68	104572	27.3	0.67800979595631
68	104603	27.4	-0.86332299197093
68	104634	27.5	-0.067881538136838
68	104665	27.6	0.73502299920655
68	104696	27.7	0.10844541587868
68	104727	27.8	-0.28816473619084
68	104758	27.9	0.60866719773042
68	104789	28	-0.80815538114404
68	104820	28.1	0.48494697760326
68	104851	28.2	0.014119945978734
68	104882	28.3	0.34074735073375
68	104913	28.4	-0.15810186916497
68	104923	28.5	0.15960576480719
68	104933	28.6	-0.082843374158266
67	19173	9.2	20.080503127857
67	19804	9.3	19.991850663128
67	20435	9.4	20.03771605046
67	21066	9.5	20.082155666207
67	21697	9.6	20.112333527263
67	22328	9.7	20.088377796891
67	22959	9.8	20.073867757684
67	23590	9.9	20.063868659539
67	24221	10	20.002464031749
67	24852	10.1	20.011243395228
67	25483	10.2	20.026755967564
67	26114	10.3	20.084097115337
67	26745	10.4	20.111171366025
67	27376	10.5	20.001839397182
67	28007	10.6	20.111424279213
67	28638	10.7	20.063507068944
67	29269	10.8	20.004144208098
67	29900	10.9	20.097999399523
67	30531	11	20.031290132736
67	31162	11.1	20.105267663701
67	31793	11.2	20.065579788473
67	32424	11.3	20.061663610626
67	33055	11.4	20.086919952957
67	33686	11.5	20.053627973094
67	34317	11.6	20.062584402976
67	34948	11.7	20.076336705338
67	35579	11.8	20.055868851158
67	36210	11.9	20.068924782197
67	36841	12	20.0367907075
67	37472	12.1	20.057939982254
67	38103	12.2	19.994948297355
67	38734	12.3	20.057340869529
67	39365	12.4	20.049779789851
67	39996	12.5	20.117036485146
67	40627	12.6	20.039315737551
67	41258	12.7	20.047592322943
67	41889	12.8	20.023891749191
67	42520	12.9	20.076816908806
67	43151	13	20.090728697381
67	43782	13.1	20.059976864369
67	44413	13.2	20.07211356543
67	45044	13.3	20.012357852398
67	45675	13.4	20.115164160917
67	46306	13.5	20.076144495106
67	46937	13.6	19.998690792185
67	47568	13.7	20.079185256942
67	48199	13.8	20.023195222775
67	48830	13.9	20.069034925997
67	49461	14	20.028880732739
67	50092	14.1	20.02993825105
67	50723	14.2	20.016450719086
67	51354	14.3	20.037762453973
67	51985	14.4	20.035285196002
67	52616	14.5	20.001181954935
67	53247	14.6	20.087659332573
67	53878	14.7	20.04737416076
67	54509	14.8	20.036948910775
67	55140	14.9	20.119999152496
67	55771	15	20.076336143503
67	56402	15.1	20.043901487419
67	57033	15.2	20.012797819274
67	57664	15.3	20.047132144198
67	58295	15.4	20.020345741368
67	58926	15.5	20.024126091518
67	59557	15.6	20.047587993108
67	60188	15.7	20.103297183246
67	60819	15.8	20.034154180428
67	61450	15.9	20.046679523732
67	62081	16	20.060426455282
67	62712	16.1	20.050967085895
67	63343	16.2	20.011795732386
67	63974	16.3	20.11574880712
67	64605	16.4	20.042112144199
67	65236	16.5	20.065474649877
67	65867	16.6	20.040691009276
67	66498	16.7	19.996790695356
67	67129	16.8	20.110373568051
67	67760	16.9	20.051782661134
67	68391	17	20.099989229997
67	69022	17.1	20.004543924215
67	69653	17.2	20.025235055473
67	70284	17.3	20.059047130886
67	70915	17.4	20.119964619572
67	71546	17.5	20.047870981351
67	72177	17.6	20.103029552614
67	72808	17.7	20.091484105075
67	73439	17.8	20.065924475156
67	74070	17.9	20.097610387406
67	74701	18	20.044736898963
67	75332	18.1	20.115545910262
67	75963	18.2	20.092295530271
67	76594	18.3	20.108901296095
67	77225	18.4	20.102852611945
67	77856	18.5	20.075871026022
67	78487	18.6	20.101333111189
67	79118	18.7	20.105978287885
67	79749	18.8	20.081645387169
67	80380	18.9	20.007528592395
67	81011	19	20.062116533439
67	81642	19.1	20.119888975765
67	82273	19.2	20.025949229971
67	82904	19.3	20.052336737551
67	83535	19.4	20.086640597901
67	84166	19.5	20.014177107741
67	84797	19.6	20.03188546275
67	85428	19.7	20.045949243428
67	85942	19.8	20.006485510005
67	86456	19.9	20.086575540139
67	86970	20	20.029530694103
67	87484	20.1	20.098091929324
67	87998	20.2	20.023441678833
67	88512	20.3	20.083558461033
67	89026	20.4	19.998904688822
67	89540	20.5	20.081094629061
67	90054	20.6	20.089591733029
67	90568	20.7	20.090643022128
67	91082	20.8	20.103375968416
67	91596	20.9	20.109997681645
67	92110	21	19.993355201117
67	92519	21.1	20.094213525103
67	92928	21.2	20.006681587093
67	93337	21.3	20.081813001547
67	93746	21.4	20.010985955494
67	94155	21.5	20.068859644709
67	94564	21.6	20.03740265833
67	94973	21.7	20.090052343607
67	95289	21.8	20.049854987024
67	95605	21.9	20.050377411363
67	95921	22	20.086179586151
67	96237	22.1	20.036268695684
67	96553	22.2	20.091287972748
67	96869	22.3	19.993320558139
67	97185	22.4	20.038505632584
67	97501	22.5	20.092244811542
67	97817	22.6	20.033429739061
67	98133	22.7	20.106311817213
67	98449	22.8	20.059271160669
67	98765	22.9	20.086444181509
67	99081	23	20.072109717068
67	99316	23.1	20.026117163373
67	99551	23.2	20.039136666015
67	99786	23.3	20.012389061807
67	100021	23.4	20.065742775935
67	100256	23.5	20.056147480903
67	100491	23.6	20.076172193096
67	100726	23.7	19.995934729218
67	100892	23.8	20.068339776562
67	101058	23.9	20.088850975372
67	101224	24	20.0616201728
67	101390	24.1	20.054277619943
67	101556	24.2	20.034000867642
67	101722	24.3	20.012631108607
67	101888	24.4	20.067791902993
67	102054	24.5	20.095509363983
67	102220	24.6	20.114975952264
67	102386	24.7	20.117651613478
67	102552	24.8	20.04453093387
67	102718	24.9	20.106775904645
67	102884	25	20.023585787821
67	102993	25.1	20.070735674466
67	103102	25.2	20.050915460035
67	103211	25.3	20.065892408285
67	103320	25.4	20.01585242172
67	103429	25.5	20.034139777226
67	103538	25.6	20.066284861842
67	103647	25.7	20.095544356073
67	103711	25.8	20.043143687434
67	103775	25.9	20.030803347374
67	103839	26	20.02724694038
67	103903	26.1	20.081691105021
67	103967	26.2	20.085584392464
67	104031	26.3	20.01562481517
67	104095	26.4	20.019537282102
67	104159	26.5	20.008185494207
67	104223	26.6	20.058932501704
67	104287	26.7	20.091024112599
67	104351	26.8	20.003017540944
67	104415	26.9	20.023920947989
67	104479	27	20.018330796913
67	104510	27.1	20.041944949427
67	104541	27.2	20.018518280284
67	104572	27.3	20.08631925988
67	104603	27.4	19.999986960683
67	104634	27.5	19.993198806869
67	104665	27.6	20.06670110679
67	104696	27.7	20.077545648378
67	104727	27.8	20.048729174759
67	104758	27.9	20.109595894532
67	104789	28	20.028780356417
67	104820	28.1	20.077275054178
67	104851	28.2	20.078687048776
67	104882	28.3	20.112761783849
67	104913	28.4	20.096951596932
67	104923	28.5	20.112912173413
67	104933	28.6	20.104627835997
66	18542	9.1	416.30025728988
66	19173	9.2	416.30025728988
66	19804	9.3	414.29230828122
66	20435	9.4	412.29322407178
66	21066	9.5	410.289553555
66	21697	9.6	408.28143930084
66	22328	9.7	406.27030741282
66	22959	9.8	404.26157097698
66	23590	9.9	402.25428547186
66	24221	10	400.24799982611
66	24852	10.1	398.24785433336
66	25483	10.2	396.24683094855
66	26114	10.3	394.24425638476
66	26745	10.4	392.23594799548
66	27376	10.5	390.22493231772
66	28007	10.6	388.22484928527
66	28638	10.7	386.21380831747
66	29269	10.8	384.20755882895
66	29900	10.9	382.20724532704
66	30531	11	380.19754677948
66	31162	11.1	378.19451882205
66	31793	11.2	376.18409348474
66	32424	11.3	374.17763673473
66	33055	11.4	372.17157158275
66	33686	11.5	370.16298092395
66	34317	11.6	368.15771929518
66	34948	11.7	366.1515620686
66	35579	11.8	364.14402968117
66	36210	11.9	362.1385439759
66	36841	12	360.13175274339
66	37472	12.1	358.12817475624
66	38103	12.2	356.12248194831
66	38734	12.3	354.12308799108
66	39365	12.4	352.1174550914
66	39996	12.5	350.11257826154
66	40627	12.6	348.10097610145
66	41258	12.7	346.09714562403
66	41889	12.8	344.09248752983
66	42520	12.9	342.09019937343
66	43151	13	340.08261896808
66	43782	13.1	338.07364745405
66	44413	13.2	336.06775096818
66	45044	13.3	334.06064087344
66	45675	13.4	332.05950604853
66	46306	13.5	330.04809111143
66	46937	13.6	328.04057794405
66	47568	13.7	326.04080975622
66	48199	13.8	324.032992528
66	48830	13.9	322.03077402073
66	49461	14	320.0239717744
66	50092	14.1	318.02118474482
66	50723	14.2	316.01829196874
66	51354	14.3	314.01674787781
66	51985	14.4	312.01307272092
66	52616	14.5	310.00964527732
66	53247	14.6	308.00962798578
66	53878	14.7	306.00096339275
66	54509	14.8	303.99632711366
66	55140	14.9	301.99273330698
66	55771	15	299.98083489511
66	56402	15.1	297.97330256386
66	57033	15.2	295.96901353459
66	57664	15.3	293.96783471521
66	58295	15.4	291.96322263656
66	58926	15.5	289.96128906306
66	59557	15.6	287.95897747361
66	60188	15.7	285.95431981237
66	60819	15.8	283.94409151316
66	61450	15.9	281.94077716542
66	62081	16	279.93621034653
66	62712	16.1	277.93026890384
66	63343	16.2	275.92527335037
66	63974	16.3	273.92419473463
66	64605	16.4	271.91272133585
66	65236	16.5	269.90861123187
66	65867	16.6	267.90216499519
66	66498	16.7	265.89819699754
66	67129	16.8	263.8986188098
66	67760	16.9	261.88768290781
66	68391	17	259.88260580093
66	69022	17.1	257.87270828036
66	69653	17.2	255.87235480885
66	70284	17.3	253.86993232861
66	70915	17.4	251.8641288114
66	71546	17.5	249.85223385264
66	72177	17.6	247.847547894
66	72808	17.7	245.83734635651
66	73439	17.8	243.82829930552
66	74070	17.9	241.82180808858
66	74701	18	239.81214844026
66	75332	18.1	237.80777587405
66	75963	18.2	235.79632276394
66	76594	18.3	233.78719457452
66	77225	18.4	231.7764058923
66	77856	18.5	229.76622204798
66	78487	18.6	227.75873622613
66	79118	18.7	225.74870432422
66	79749	18.8	223.73820792807
66	80380	18.9	221.73014469924
66	81011	19	219.72949277598
66	81642	19.1	217.723382334
66	82273	19.2	215.71149493924
66	82904	19.3	213.70900104515
66	83535	19.4	211.70386853342
66	84166	19.5	209.69530580871
66	84797	19.6	207.69398906745
66	85428	19.7	205.69090158003
66	85942	19.8	203.68640778549
66	86456	19.9	201.6858601652
66	86970	20	199.67730394594
66	87484	20.1	197.6744519235
66	87998	20.2	195.66474412342
66	88512	20.3	193.66250097179
66	89026	20.4	191.65424644523
66	89540	20.5	189.65445686881
66	90054	20.6	187.64644871301
66	90568	20.7	185.63759088968
66	91082	20.8	183.62862794275
66	91596	20.9	181.61839176542
66	92110	21	179.60749345017
66	92519	21.1	177.60825879453
66	92928	21.2	175.59893881531
66	93337	21.3	173.5983715883
66	93746	21.4	171.59029159888
66	94155	21.5	169.58929395674
66	94564	21.6	167.58250923765
66	94973	21.7	165.57887005851
66	95289	21.8	163.56996617644
66	95605	21.9	161.56508182725
66	95921	22	159.56014523825
66	96237	22.1	157.5516286124
66	96553	22.2	155.54810282379
66	96869	22.3	153.53907538505
66	97185	22.4	151.53984419353
66	97501	22.5	149.53609472252
66	97817	22.6	147.52697160472
66	98133	22.7	145.52372969746
66	98449	22.8	143.51319995006
66	98765	22.9	141.507374031
66	99081	23	139.49883094695
66	99316	23.1	137.49172123702
66	99551	23.2	135.48921055043
66	99786	23.3	133.48539797926
66	100021	23.4	131.48426003358
66	100256	23.5	129.47778698564
66	100491	23.6	127.4722734188
66	100726	23.7	125.46475748177
66	100892	23.8	123.46526488633
66	101058	23.9	121.45853215143
66	101224	24	119.44974840013
66	101390	24.1	117.44368759171
66	101556	24.2	115.43836100153
66	101722	24.3	113.43506198429
66	101888	24.4	111.43389983514
66	102054	24.5	109.42722188484
66	102220	24.6	107.41777232827
66	102386	24.7	105.40637621108
66	102552	24.8	103.39471254126
66	102718	24.9	101.39036057052
66	102884	25	99.379784416723
66	102993	25.1	97.377526854921
66	103102	25.2	95.370554542321
66	103211	25.3	93.365564151173
66	103320	25.4	91.359076140757
66	103429	25.5	89.357591876551
66	103538	25.6	87.354278969053
66	103647	25.7	85.347751715261
66	103711	25.8	83.338298659657
66	103775	25.9	81.334085406562
66	103839	26	79.331106125216
66	103903	26.1	77.328482466628
66	103967	26.2	75.320414666242
66	104031	26.3	73.311957556752
66	104095	26.4	71.310496052053
66	104159	26.5	69.308643320399
66	104223	26.6	67.307925710265
66	104287	26.7	65.302133655395
66	104351	26.8	63.293132601335
66	104415	26.9	61.292931760456
66	104479	27	59.290640684328
66	104510	27.1	57.288908595106
66	104541	27.2	55.284815209763
66	104572	27.3	53.28306437315
66	104603	27.4	51.274533780626
66	104634	27.5	49.274635982484
66	104665	27.6	47.275416965478
66	104696	27.7	45.268848089291
66	104727	27.8	43.261194813656
66	104758	27.9	41.256423040006
66	104789	28	39.245564901445
66	104820	28.1	37.242787908989
66	104851	28.2	35.235161691409
66	104882	28.3	33.227394281492
66	104913	28.4	31.216219569971
66	104923	28.5	29.206625797381
66	104933	28.6	27.195436047662
65	18542	9.1	23.397598627787
65	19173	9.2	23.397598627787
65	19804	9.3	23.416339890418
65	20435	9.4	23.434998413134
65	21066	9.5	23.45369974231
65	21697	9.6	23.472442547265
65	22328	9.7	23.491213517412
65	22959	9.8	23.509962129522
65	23590	9.9	23.528697199319
65	24221	10	23.547422936894
65	24852	10.1	23.566091365134
65	25483	10.2	23.584767987211
65	26114	10.3	23.603459087272
65	26745	10.4	23.622203704194
65	27376	10.5	23.640973589689
65	28007	10.6	23.659641434954
65	28638	10.7	23.678411556494
65	29269	10.8	23.697136956594
65	29900	10.9	23.715806952954
65	30531	11	23.734564544967
65	31162	11.1	23.753259876793
65	31793	11.2	23.772024252324
65	32424	11.3	23.790751586907
65	33055	11.4	23.809475266495
65	33686	11.5	23.82822251799
65	34317	11.6	23.846938697866
65	34948	11.7	23.865663236835
65	35579	11.8	23.884400610917
65	36210	11.9	23.903118882219
65	36841	12	23.921849338705
65	37472	12.1	23.940549804253
65	38103	12.2	23.959270008555
65	38734	12.3	23.977931422312
65	39365	12.4	23.996651067458
65	39996	12.5	24.0153636558
65	40627	12.6	24.034139015248
65	41258	12.7	24.052841837423
65	41889	12.8	24.071552384188
65	42520	12.9	24.090240811055
65	43151	13	24.108978633313
65	43782	13.1	24.127729439534
65	44413	13.2	24.146451544871
65	45044	13.3	24.165184977469
65	45675	13.4	24.183862639676
65	46306	13.5	24.202636251672
65	46937	13.6	24.221373446362
65	47568	13.7	24.240038353014
65	48199	13.8	24.258778385668
65	48830	13.9	24.277466162462
65	49461	14	24.296196721746
65	50092	14.1	24.314889804864
65	50723	14.2	24.33358387497
65	51354	14.3	24.352265357076
65	51985	14.4	24.370966729561
65	52616	14.5	24.389665790005
65	53247	14.6	24.408333021676
65	53878	14.7	24.427080963238
65	54509	14.8	24.445791306391
65	55140	14.9	24.464491919591
65	55771	15	24.483270044115
65	56402	15.1	24.502007417672
65	57033	15.2	24.520714519757
65	57664	15.3	24.539392592588
65	58295	15.4	24.558102709865
65	58926	15.5	24.57678782722
65	59557	15.6	24.595476472801
65	60188	15.7	24.614187015525
65	60819	15.8	24.632949551994
65	61450	15.9	24.651647556854
65	62081	16	24.670357251697
65	62712	16.1	24.68907977664
65	63343	16.2	24.707793473093
65	63974	16.3	24.72647061067
65	64605	16.4	24.74524476832
65	65236	16.5	24.763950200399
65	65867	16.6	24.782677436854
65	66498	16.7	24.801381542579
65	67129	16.8	24.820044675858
65	67760	16.9	24.838813816763
65	68391	17	24.857528274397
65	69022	17.1	24.876287723532
65	69653	17.2	24.89495809295
65	70284	17.3	24.913647773534
65	70915	17.4	24.932369011144
65	71546	17.5	24.951147103439
65	72177	17.6	24.969857910277
65	72808	17.7	24.988620196965
65	73439	17.8	25.007371708212
65	74070	17.9	25.026099364493
65	74701	18	25.044856593439
65	75332	18.1	25.063564475218
65	75963	18.2	25.082338443503
65	76594	18.3	25.101090712059
65	77225	18.4	25.119858478882
65	77856	18.5	25.13862060043
65	78487	18.6	25.15735753989
65	79118	18.7	25.176118243278
65	79749	18.8	25.19488328204
65	80380	18.9	25.213625610748
65	81011	19	25.232298765776
65	81642	19.1	25.25102286808
65	82273	19.2	25.269800889776
65	82904	19.3	25.288491236903
65	83535	19.4	25.30720621166
65	84166	19.5	25.325953202431
65	84797	19.6	25.344632562561
65	85428	19.7	25.363328450012
65	85942	19.8	25.382037463281
65	86456	19.9	25.400709644793
65	86970	20	25.419456574845
65	87484	20.1	25.438150264576
65	87998	20.2	25.456907942948
65	88512	20.3	25.475595949761
65	89026	20.4	25.494340063954
65	89540	20.5	25.513005170237
65	90054	20.6	25.53174698492
65	90568	20.7	25.550496730004
65	91082	20.8	25.569247456263
65	91596	20.9	25.588010066263
65	92110	21	25.60677885635
65	92519	21.1	25.625438783261
65	92928	21.2	25.644192841893
65	93337	21.3	25.662865206406
65	93746	21.4	25.68160769155
65	94155	21.5	25.700284073357
65	94564	21.6	25.71901446905
65	94973	21.7	25.737715505735
65	95289	21.8	25.75646568071
65	95605	21.9	25.775178339234
65	95921	22	25.79389148534
65	96237	22.1	25.812638045846
65	96553	22.2	25.831338024196
65	96869	22.3	25.850089352392
65	97185	22.4	25.86874924697
65	97501	22.5	25.887451313069
65	97817	22.6	25.906203534288
65	98133	22.7	25.924900863023
65	98449	22.8	25.943666213069
65	98765	22.9	25.962387659768
65	99081	23	25.981134467222
65	99316	23.1	25.999867896229
65	99551	23.2	26.018558400089
65	99786	23.3	26.037261055135
65	100021	23.4	26.05593874647
65	100256	23.5	26.07466623317
65	100491	23.6	26.093384764519
65	100726	23.7	26.11212198506
65	100892	23.8	26.130784319461
65	101058	23.9	26.149514229957
65	101224	24	26.168263283688
65	101390	24.1	26.186986922735
65	101556	24.2	26.205703708931
65	101722	24.3	26.224401570703
65	101888	24.4	26.243079487942
65	102054	24.5	26.261808887105
65	102220	24.6	26.280564155152
65	102386	24.7	26.299337591491
65	102552	24.8	26.318113525042
65	102718	24.9	26.336821214593
65	102884	25	26.355586997775
65	102993	25.1	26.374275139087
65	103102	25.2	26.39300728569
65	103211	25.3	26.411720933961
65	103320	25.4	26.430448560313
65	103429	25.5	26.449129484024
65	103538	25.6	26.467827475441
65	103647	25.7	26.486555468073
65	103711	25.8	26.505310768779
65	103775	25.9	26.524017163604
65	103839	26	26.54271204111
65	103903	26.1	26.561403599398
65	103967	26.2	26.580145970776
65	104031	26.3	26.598891975783
65	104095	26.4	26.617572687068
65	104159	26.5	26.636257049883
65	104223	26.6	26.654930818001
65	104287	26.7	26.673651948628
65	104351	26.8	26.692403030561
65	104415	26.9	26.711071975396
65	104479	27	26.729760429514
65	104510	27.1	26.748443666309
65	104541	27.2	26.767148942344
65	104572	27.3	26.785832354118
65	104603	27.4	26.804579044982
65	104634	27.5	26.823245161356
65	104665	27.6	26.841904942303
65	104696	27.7	26.860633323419
65	104727	27.8	26.879371825815
65	104758	27.9	26.898083433611
65	104789	28	26.916851848708
65	104820	28.1	26.935544838143
65	104851	28.2	26.954283087992
65	104882	28.3	26.973022655664
65	104913	28.4	26.991794025506
65	104923	28.5	27.010550639599
65	104933	28.6	27.0293221498
