version 2
run General-5-20161208-15:06:37-726
attr configname General
attr datetime 20161208-15:06:37
attr experiment General
attr inifile omnetpp.ini
attr iterationvars ""
attr iterationvars2 $repetition=5
attr measurement ""
attr network com.liborio.locvanet.LocScenario
attr processid 726
attr repetition 5
attr replication #5
attr resultdir results
attr runnumber 5
attr seedset 5
param **.coreDebug false
param **.debug false
param *.**.nic.mac1609_4.bitrate 18Mbps
param *.**.nic.mac1609_4.txPower 20mW
param *.**.nic.mac1609_4.useServiceChannel false
param *.**.nic.phy80211p.analogueModels "xmldoc(\"config_trgi.xml\")"
param *.**.nic.phy80211p.decider "xmldoc(\"config_trgi.xml\")"
param *.**.nic.phy80211p.sensitivity -89dBm
param *.**.nic.phy80211p.thermalNoise -110dBm
param *.**.nic.phy80211p.usePropagationDelay true
param *.**.nic.phy80211p.useThermalNoise true
param *.annotations.draw false
param *.connectionManager.alpha 2.0
param *.connectionManager.carrierFrequency "5.890e9 Hz"
param *.connectionManager.pMax 20mW
param *.connectionManager.sat -89dBm
param *.connectionManager.sendDirect true
param *.manager.autoShutdown true
param *.manager.host "\"localhost\""
param *.manager.launchConfig "xmldoc(\"tunnel.launchd.xml\")"
param *.manager.margin 25
param *.manager.moduleDisplayString "\"\""
param *.manager.moduleName "\"node\""
param *.manager.moduleType "\"org.car2x.veins.nodes.Car\""
param *.manager.port 9999
param *.manager.updateInterval 0.1s
param *.node[*].appl.beaconInterval 0.1s
param *.node[*].appl.beaconPriority 3
param *.node[*].appl.dataOnSch false
param *.node[*].appl.dataPriority 2
param *.node[*].appl.debug false
param *.node[*].appl.headerLength "256 bit"
param *.node[*].appl.maxOffset 0.005s
param *.node[*].appl.sendBeacons true
param *.node[*].appl.sendData true
param *.node[*].applType "\"LocAppCom\""
param *.node[*].mobilityType "\"TraCIMobility\""
param *.node[*].mobilityType.debug true
param *.node[*].veinsmobility.x 0
param *.node[*].veinsmobility.y 0
param *.node[*].veinsmobility.z 1.895
param *.node[*].veinsmobilityType "\"org.car2x.veins.modules.mobility.traci.TraCIMobility\""
param *.node[*].veinsmobilityType.debug true
param *.playgroundSizeX 5000m
param *.playgroundSizeY 5000m
param *.playgroundSizeZ 50m
param *.world.use2D false
param *.world.useTorus false

vector 2  LocScenario.node[0].veinsmobility  posx  ETV
vector 3  LocScenario.node[0].veinsmobility  posy  ETV
vector 4  LocScenario.node[0].veinsmobility  speed  ETV
vector 5  LocScenario.node[0].veinsmobility  acceleration  ETV
vector 6  LocScenario.node[0].veinsmobility  co2emission  ETV
vector 9  LocScenario.node[1].veinsmobility  posx  ETV
vector 10  LocScenario.node[1].veinsmobility  posy  ETV
vector 11  LocScenario.node[1].veinsmobility  speed  ETV
vector 12  LocScenario.node[1].veinsmobility  acceleration  ETV
vector 13  LocScenario.node[1].veinsmobility  co2emission  ETV
vector 16  LocScenario.node[2].veinsmobility  posx  ETV
vector 17  LocScenario.node[2].veinsmobility  posy  ETV
vector 18  LocScenario.node[2].veinsmobility  speed  ETV
vector 19  LocScenario.node[2].veinsmobility  acceleration  ETV
vector 20  LocScenario.node[2].veinsmobility  co2emission  ETV
vector 23  LocScenario.node[3].veinsmobility  posx  ETV
vector 24  LocScenario.node[3].veinsmobility  posy  ETV
vector 25  LocScenario.node[3].veinsmobility  speed  ETV
vector 26  LocScenario.node[3].veinsmobility  acceleration  ETV
vector 27  LocScenario.node[3].veinsmobility  co2emission  ETV
vector 30  LocScenario.node[4].veinsmobility  posx  ETV
vector 31  LocScenario.node[4].veinsmobility  posy  ETV
vector 32  LocScenario.node[4].veinsmobility  speed  ETV
vector 33  LocScenario.node[4].veinsmobility  acceleration  ETV
vector 34  LocScenario.node[4].veinsmobility  co2emission  ETV
vector 37  LocScenario.node[5].veinsmobility  posx  ETV
vector 38  LocScenario.node[5].veinsmobility  posy  ETV
vector 39  LocScenario.node[5].veinsmobility  speed  ETV
vector 40  LocScenario.node[5].veinsmobility  acceleration  ETV
vector 41  LocScenario.node[5].veinsmobility  co2emission  ETV
vector 44  LocScenario.node[6].veinsmobility  posx  ETV
vector 45  LocScenario.node[6].veinsmobility  posy  ETV
vector 46  LocScenario.node[6].veinsmobility  speed  ETV
vector 47  LocScenario.node[6].veinsmobility  acceleration  ETV
vector 48  LocScenario.node[6].veinsmobility  co2emission  ETV
vector 51  LocScenario.node[7].veinsmobility  posx  ETV
vector 52  LocScenario.node[7].veinsmobility  posy  ETV
vector 53  LocScenario.node[7].veinsmobility  speed  ETV
vector 54  LocScenario.node[7].veinsmobility  acceleration  ETV
vector 55  LocScenario.node[7].veinsmobility  co2emission  ETV
vector 58  LocScenario.node[8].veinsmobility  posx  ETV
vector 59  LocScenario.node[8].veinsmobility  posy  ETV
vector 60  LocScenario.node[8].veinsmobility  speed  ETV
vector 61  LocScenario.node[8].veinsmobility  acceleration  ETV
vector 62  LocScenario.node[8].veinsmobility  co2emission  ETV
vector 65  LocScenario.node[9].veinsmobility  posx  ETV
vector 66  LocScenario.node[9].veinsmobility  posy  ETV
vector 67  LocScenario.node[9].veinsmobility  speed  ETV
vector 68  LocScenario.node[9].veinsmobility  acceleration  ETV
vector 69  LocScenario.node[9].veinsmobility  co2emission  ETV
6	22	0.3	0.973
6	32	0.4	3.0627850279511
6	42	0.5	6.7607170580668
6	52	0.6	1.8379785781189
6	62	0.7	0.973
6	72	0.8	2.4316187513926
6	82	0.9	5.9083494998793
6	92	1	5.3422229896583
6	102	1.1	0.973
6	133	1.2	4.4457557487804
6	164	1.3	1.9902754585331
6	195	1.4	0.973
6	226	1.5	3.96085088047
6	257	1.6	3.8164507692073
6	288	1.7	1.7499502095128
6	319	1.8	6.4589990635884
6	350	1.9	0.973
6	381	2	6.9469614101685
6	412	2.1	2.2416884708926
6	476	2.2	2.2484849696862
6	540	2.3	1.3922917055694
6	604	2.4	2.3417136503128
6	668	2.5	6.5221508190617
6	732	2.6	1.3235818125134
6	796	2.7	0.973
6	860	2.8	7.0350909630635
6	924	2.9	0.973
6	988	3	5.1769669964456
6	1052	3.1	1.0070285837815
6	1161	3.2	0.92199649325602
6	1270	3.3	4.0886287869841
6	1379	3.4	3.2129933967194
6	1488	3.5	0.973
6	1597	3.6	3.9647026516099
6	1706	3.7	2.0603326420397
6	1815	3.8	5.6717401409071
6	1924	3.9	3.2682289763431
6	2033	4	1.8950627273457
6	2142	4.1	3.2095271060965
6	2308	4.2	5.183233536706
6	2474	4.3	1.7960068288569
6	2640	4.4	0.99523539929942
6	2806	4.5	4.4881180956717
6	2972	4.6	0.973
6	3138	4.7	5.342502848627
6	3304	4.8	0.973
6	3470	4.9	2.5088040885304
6	3636	5	3.1298381343775
6	3802	5.1	1.8047829061023
6	4037	5.2	2.8917758203774
6	4272	5.3	6.5838498543865
6	4507	5.4	1.7899500095659
6	4742	5.5	5.9715922071806
6	4977	5.6	0.973
6	5212	5.7	3.023150397629
6	5447	5.8	2.0297083646793
6	5682	5.9	1.3816616520475
6	5917	6	5.0170014113236
6	6152	6.1	3.4068285582159
6	6468	6.2	3.5763891183878
6	6784	6.3	1.0275686857049
6	7100	6.4	5.3776095400967
6	7416	6.5	0.973
6	7732	6.6	4.4331154157775
6	8048	6.7	3.3405064913426
6	8364	6.8	1.8174962464766
6	8680	6.9	4.5990443039935
6	8996	7	2.1851581215769
6	9312	7.1	1.2797168662205
6	9721	7.2	2.9366747677035
6	10130	7.3	0.973
6	10539	7.4	4.917414570058
6	10948	7.5	4.6338029704195
6	11357	7.6	1.1361585705342
6	11766	7.7	3.6785241322449
6	12175	7.8	1.1915782377657
6	12584	7.9	4.9113316477072
6	12993	8	2.0789926073685
6	13402	8.1	5.3847066297755
6	13916	8.2	1.0053040832065
6	14430	8.3	1.6272884713291
6	14944	8.4	6.034974944632
6	15458	8.5	1.312638542646
6	15972	8.6	2.0167196517812
6	16486	8.7	4.8218607109449
6	17000	8.8	0.973
6	17514	8.9	3.6057331883209
6	18028	9	3.1915553007169
6	18542	9.1	6.0936759715251
6	19173	9.2	0.973
6	19804	9.3	4.6998048650536
6	20435	9.4	0.973
6	21066	9.5	8.4012024665487
6	21697	9.6	2.9284280405517
6	22328	9.7	0.973
6	22959	9.8	9.0845011295489
6	23590	9.9	1.394316227136
6	24221	10	0.973
6	24852	10.1	8.6968068437844
6	25483	10.2	0.84742929692422
6	26114	10.3	3.1083382516374
6	26745	10.4	1.4774853930705
6	27376	10.5	1.8481179792334
6	28007	10.6	5.5252420813761
6	28638	10.7	1.0345398023927
6	29269	10.8	1.3875323491112
6	29900	10.9	4.2305161635237
6	30531	11	2.839974678753
6	31162	11.1	1.5455006967061
6	31793	11.2	4.0913741860863
6	32424	11.3	2.9494569628208
6	33055	11.4	0.973
6	33686	11.5	6.9132643212992
6	34317	11.6	1.6794072068691
6	34948	11.7	0.973
6	35579	11.8	2.5190747944156
6	36210	11.9	3.8892651689329
6	36841	12	2.6063702579655
6	37472	12.1	3.2046664362407
6	38103	12.2	2.0578220575587
6	38734	12.3	7.3255144928748
6	39365	12.4	2.7828726212598
6	39996	12.5	0.973
6	40627	12.6	6.8657671657224
6	41258	12.7	0.59411007661204
6	41889	12.8	5.1953176242661
6	42520	12.9	3.0684733570362
6	43151	13	1.6484184379722
6	43782	13.1	2.6201106137568
6	44413	13.2	1.6726274325789
6	45044	13.3	0.973
6	45675	13.4	6.2977240806814
6	46306	13.5	0.973
6	46937	13.6	3.4357955217827
6	47568	13.7	7.6429947897577
6	48199	13.8	2.2567736315376
6	48830	13.9	0.973
6	49461	14	6.654559600485
6	50092	14.1	0.973
6	50723	14.2	7.0528434438904
6	51354	14.3	0.55565355089461
6	51985	14.4	0.973
6	52616	14.5	2.7776844526478
6	53247	14.6	8.5155631601841
6	53878	14.7	0.973
6	54509	14.8	5.6420015815324
6	55140	14.9	2.7833975855852
6	55771	15	3.5840988888414
6	56402	15.1	1.772642450001
6	57033	15.2	2.7266120962579
6	57664	15.3	0.973
6	58295	15.4	2.4908409677012
6	58926	15.5	6.1550097781271
6	59557	15.6	5.0233844680597
6	60188	15.7	2.6505874616315
6	60819	15.8	0.973
6	61450	15.9	2.4591388245398
6	62081	16	5.8787805924064
6	62712	16.1	0.67131611661625
6	63343	16.2	1.3823610896158
6	63974	16.3	1.8162341562096
6	64605	16.4	3.2567798754763
6	65236	16.5	3.1871324257716
6	65867	16.6	4.8062784647981
6	66498	16.7	5.2394872040838
6	67129	16.8	0.973
6	67760	16.9	4.173310619398
6	68391	17	6.8041435844357
6	69022	17.1	0.78880975707915
6	69653	17.2	1.9558038254709
6	70284	17.3	4.0770387242137
6	70915	17.4	4.1061441575442
6	71546	17.5	0.973
6	72177	17.6	5.0304207757851
6	72808	17.7	0.973
6	73439	17.8	6.1935805001944
6	74070	17.9	0.973
6	74701	18	5.2397510481457
6	75332	18.1	2.7627270787793
6	75963	18.2	3.69320772273
6	76594	18.3	0.973
6	77225	18.4	3.5645564699167
6	77856	18.5	3.1185232123842
6	78487	18.6	1.947966156336
6	79118	18.7	3.8020485127497
6	79749	18.8	2.8773280366419
6	80380	18.9	3.8476466280447
6	81011	19	0.973
6	81642	19.1	6.0528789540511
6	82273	19.2	0.973
6	82904	19.3	8.7629148891079
6	83535	19.4	1.080513786322
6	84166	19.5	0.973
6	84797	19.6	5.8524365123275
5	22	0.3	-1.060217837547
5	32	0.4	0.0512258025352
5	42	0.5	0.8119912917493
5	52	0.6	-0.20412306375803
5	62	0.7	-0.72133621168323
5	72	0.8	-0.079084321227825
5	82	0.9	0.63834394991861
5	92	1	0.51816720264032
5	102	1.1	-0.6784996757051
5	133	1.2	0.33488756443841
5	164	1.3	-0.17224994227291
5	195	1.4	-0.65543781397864
5	226	1.5	0.23730101955589
5	257	1.6	0.20646964912302
5	288	1.7	-0.22101809168234
5	319	1.8	0.7500121054705
5	350	1.9	-0.6783818536438
5	381	2	0.84951338635292
5	412	2.1	-0.12123017814009
5	476	2.2	-0.11950273830443
5	540	2.3	-0.2958739607595
5	604	2.4	-0.099130083713668
5	668	2.5	0.76095298181752
5	732	2.6	-0.31070968522691
5	796	2.7	-0.75387590711468
5	860	2.8	0.86824385663494
5	924	2.9	-0.51444154407363
5	988	3	0.48479921172838
5	1052	3.1	-0.37568319595884
5	1161	3.2	-0.39274671757596
5	1270	3.3	0.26240723629019
5	1379	3.4	0.080847332603291
5	1488	3.5	-0.6111973360181
5	1597	3.6	0.23806577133946
5	1706	3.7	-0.15632854034191
5	1815	3.8	0.5892396079609
5	1924	3.9	0.091706637642339
5	2033	4	-0.19176519750616
5	2142	4.1	0.079983042436638
5	2308	4.2	0.48552044783719
5	2474	4.3	-0.21305736559441
5	2640	4.4	-0.37795927871485
5	2806	4.5	0.34330404705834
5	2972	4.6	-0.67965137672147
5	3138	4.7	0.5207865064731
5	3304	4.8	-0.48351812022737
5	3470	4.9	-0.063586257002335
5	3636	5	0.064958084351403
5	3802	5.1	-0.20924947315361
5	4037	5.2	0.016261077113455
5	4272	5.3	0.77676551647016
5	4507	5.4	-0.21362463785334
5	4742	5.5	0.64738099914972
5	4977	5.6	-0.60576052451506
5	5212	5.7	0.04125058322682
5	5447	5.8	-0.16381407028533
5	5682	5.9	-0.29741774264256
5	5917	6	0.45367749081922
5	6152	6.1	0.12016634084286
5	6468	6.2	0.15458628584163
5	6784	6.3	-0.37134095828513
5	7100	6.4	0.52571943141519
5	7416	6.5	-0.7530052827671
5	7732	6.6	0.33286415578331
5	8048	6.7	0.10647478913889
5	8364	6.8	-0.20788615897764
5	8680	6.9	0.36582592069173
5	8996	7	-0.13242303030566
5	9312	7.1	-0.31902302938981
5	9721	7.2	0.023918253160105
5	10130	7.3	-0.54018409824931
5	10539	7.4	0.43449985678308
5	10948	7.5	0.37382878768256
5	11357	7.6	-0.34865397037937
5	11766	7.7	0.17707304165231
5	12175	7.8	-0.3369188233977
5	12584	7.9	0.43161850818432
5	12993	8	-0.15371306086891
5	13402	8.1	0.52729341015223
5	13916	8.2	-0.37613584275825
5	14430	8.3	-0.24699763387908
5	14944	8.4	0.66126600382848
5	15458	8.5	-0.31275631275491
5	15972	8.6	-0.16681316224858
5	16486	8.7	0.41127585824579
5	17000	8.8	-0.95731980695856
5	17514	8.9	0.16347685861401
5	18028	9	0.077347711706537
5	18542	9.1	0.67411737109069
5	19173	9.2	-0.78339356654325
5	19804	9.3	0.38836765405723
5	20435	9.4	-0.54369837490377
5	21066	9.5	1.1486987958895
5	21697	9.6	0.01974872399586
5	22328	9.7	-1.2754525223747
5	22959	9.8	1.2893178465078
5	23590	9.9	-0.29614781548737
5	24221	10	-0.94712657220661
5	24852	10.1	1.2096737213433
5	25483	10.2	-0.40891715358011
5	26114	10.3	0.058186834328779
5	26745	10.4	-0.27826731377282
5	27376	10.5	-0.20111385956405
5	28007	10.6	0.55712552366312
5	28638	10.7	-0.36990111484194
5	29269	10.8	-0.29631486115978
5	29900	10.9	0.29147747529208
5	30531	11	0.0037081606453171
5	31162	11.1	-0.26364013298881
5	31793	11.2	0.26267096274534
5	32424	11.3	0.026276932097957
5	33055	11.4	-0.63393995496444
5	33686	11.5	0.84483797142749
5	34317	11.6	-0.23645331836306
5	34948	11.7	-0.53553605405614
5	35579	11.8	-0.0609110739315
5	36210	11.9	0.22249306263404
5	36841	12	-0.043345421901932
5	37472	12.1	0.080423432216072
5	38103	12.2	-0.15690365140326
5	38734	12.3	0.92847395662684
5	39365	12.4	-0.009494284959537
5	39996	12.5	-0.84808896807953
5	40627	12.6	0.83371975224001
5	41258	12.7	-0.46098915087061
5	41889	12.8	0.48859326625244
5	42520	12.9	0.049259485350923
5	43151	13	-0.24337737357708
5	43782	13.1	-0.042413504887371
5	44413	13.2	-0.23778031186669
5	45044	13.3	-0.54749427516942
5	45675	13.4	0.71830971629822
5	46306	13.5	-0.71678791563027
5	46937	13.6	0.12879088800403
5	47568	13.7	0.99316004198045
5	48199	13.8	-0.1181235718774
5	48830	13.9	-0.8600884078303
5	49461	14	0.79052578618281
5	50092	14.1	-0.55803978990298
5	50723	14.2	0.87041261033157
5	51354	14.3	-0.46918657894711
5	51985	14.4	-0.74843380809764
5	52616	14.5	-0.0073543121805386
5	53247	14.6	1.172579343617
5	53878	14.7	-0.92367504015563
5	54509	14.8	0.5818670039298
5	55140	14.9	-0.0088528258726228
5	55771	15	0.15598735962996
5	56402	15.1	-0.21760414855091
5	57033	15.2	-0.020325913862322
5	57664	15.3	-0.7115908689331
5	58295	15.4	-0.06676479240415
5	58926	15.5	0.68909621892963
5	59557	15.6	0.4525102632353
5	60188	15.7	-0.03706311362329
5	60819	15.8	-0.59376438851469
5	61450	15.9	-0.074623501463797
5	62081	16	0.62953252035658
5	62712	16.1	-0.4450867835665
5	63343	16.2	-0.29742207550445
5	63974	16.3	-0.20704582470934
5	64605	16.4	0.091429099603531
5	65236	16.5	0.076705714757566
5	65867	16.6	0.41009397429882
5	66498	16.7	0.49682222963309
5	67129	16.8	-1.0250768743688
5	67760	16.9	0.28033819806296
5	68391	17	0.81910172600765
5	69022	17.1	-0.42104617541188
5	69653	17.2	-0.17941743046975
5	70284	17.3	0.2582088299561
5	70915	17.4	0.26300726546907
5	71546	17.5	-0.70024652581196
5	72177	17.6	0.45507877829952
5	72808	17.7	-0.50756153785624
5	73439	17.8	0.69410518431102
5	74070	17.9	-1.0343891994096
5	74701	18	0.5003359384602
5	75332	18.1	-0.012220603972679
5	75963	18.2	0.17959051551298
5	76594	18.3	-0.72882781217341
5	77225	18.4	0.15532520329582
5	77856	18.5	0.062609261577009
5	78487	18.6	-0.17961042609532
5	79118	18.7	0.20419471079951
5	79749	18.8	0.012485864409228
5	80380	18.9	0.21266264354345
5	81011	19	-0.48603474113627
5	81642	19.1	0.66801958703437
5	82273	19.2	-0.68480832045896
5	82904	19.3	1.223519418505
5	83535	19.4	-0.36077928529121
5	84166	19.5	-0.76000961291136
5	84797	19.6	0.62627414104064
4	12	0.2	20.112826584303
4	22	0.3	20.006804800548
4	32	0.4	20.011927380802
4	42	0.5	20.093126509977
4	52	0.6	20.072714203601
4	62	0.7	20.000580582432
4	72	0.8	19.99267215031
4	82	0.9	20.056506545302
4	92	1	20.108323265566
4	102	1.1	20.040473297995
4	133	1.2	20.073962054439
4	164	1.3	20.056737060212
4	195	1.4	19.991193278814
4	226	1.5	20.014923380769
4	257	1.6	20.035570345682
4	288	1.7	20.013468536513
4	319	1.8	20.08846974706
4	350	1.9	20.020631561696
4	381	2	20.105582900331
4	412	2.1	20.093459882517
4	476	2.2	20.081509608687
4	540	2.3	20.051922212611
4	604	2.4	20.04200920424
4	668	2.5	20.118104502421
4	732	2.6	20.087033533899
4	796	2.7	20.011645943187
4	860	2.8	20.098470328851
4	924	2.9	20.047026174443
4	988	3	20.095506095616
4	1052	3.1	20.05793777602
4	1161	3.2	20.018663104263
4	1270	3.3	20.044903827892
4	1379	3.4	20.052988561152
4	1488	3.5	19.99186882755
4	1597	3.6	20.015675404684
4	1706	3.7	20.00004255065
4	1815	3.8	20.058966511446
4	1924	3.9	20.06813717521
4	2033	4	20.04896065546
4	2142	4.1	20.056958959703
4	2308	4.2	20.105511004487
4	2474	4.3	20.084205267928
4	2640	4.4	20.046409340056
4	2806	4.5	20.080739744762
4	2972	4.6	20.01277460709
4	3138	4.7	20.064853257737
4	3304	4.8	20.016501445714
4	3470	4.9	20.010142820014
4	3636	5	20.016638628449
4	3802	5.1	19.995713681134
4	4037	5.2	19.997339788845
4	4272	5.3	20.075016340492
4	4507	5.4	20.053653876707
4	4742	5.5	20.118391976622
4	4977	5.6	20.05781592417
4	5212	5.7	20.061940982493
4	5447	5.8	20.045559575465
4	5682	5.9	20.0158178012
4	5917	6	20.061185550282
4	6152	6.1	20.073202184367
4	6468	6.2	20.088660812951
4	6784	6.3	20.051526717122
4	7100	6.4	20.104098660264
4	7416	6.5	20.028798131987
4	7732	6.6	20.062084547565
4	8048	6.7	20.072732026479
4	8364	6.8	20.051943410581
4	8680	6.9	20.088526002651
4	8996	7	20.07528369962
4	9312	7.1	20.043381396681
4	9721	7.2	20.045773221997
4	10130	7.3	19.991754812172
4	10539	7.4	20.03520479785
4	10948	7.5	20.072587676619
4	11357	7.6	20.037722279581
4	11766	7.7	20.055429583746
4	12175	7.8	20.021737701406
4	12584	7.9	20.064899552225
4	12993	8	20.049528246138
4	13402	8.1	20.102257587153
4	13916	8.2	20.064644002877
4	14430	8.3	20.039944239489
4	14944	8.4	20.106070839872
4	15458	8.5	20.074795208597
4	15972	8.6	20.058113892372
4	16486	8.7	20.099241478196
4	17000	8.8	20.0035094975
4	17514	8.9	20.019857183362
4	18028	9	20.027591954533
4	18542	9.1	20.095003691642
4	19173	9.2	20.016664334987
4	19804	9.3	20.055501100393
4	20435	9.4	20.001131262903
4	21066	9.5	20.116001142492
4	21697	9.6	20.117976014891
4	22328	9.7	19.990430762654
4	22959	9.8	20.119362547304
4	23590	9.9	20.089747765756
4	24221	10	19.995035108535
4	24852	10.1	20.116002480669
4	25483	10.2	20.075110765311
4	26114	10.3	20.080929448744
4	26745	10.4	20.053102717367
4	27376	10.5	20.032991331411
4	28007	10.6	20.088703883777
4	28638	10.7	20.051713772293
4	29269	10.8	20.022082286177
4	29900	10.9	20.051230033706
4	30531	11	20.05160084977
4	31162	11.1	20.025236836472
4	31793	11.2	20.051503932746
4	32424	11.3	20.054131625956
4	33055	11.4	19.990737630459
4	33686	11.5	20.075221427602
4	34317	11.6	20.051576095766
4	34948	11.7	19.99802249036
4	35579	11.8	19.991931382967
4	36210	11.9	20.014180689231
4	36841	12	20.00984614704
4	37472	12.1	20.017888490262
4	38103	12.2	20.002198125122
4	38734	12.3	20.095045520784
4	39365	12.4	20.094096092288
4	39996	12.5	20.00928719548
4	40627	12.6	20.092659170704
4	41258	12.7	20.046560255617
4	41889	12.8	20.095419582243
4	42520	12.9	20.100345530778
4	43151	13	20.07600779342
4	43782	13.1	20.071766442931
4	44413	13.2	20.047988411745
4	45044	13.3	19.993238984228
4	45675	13.4	20.065069955857
4	46306	13.5	19.993391164294
4	46937	13.6	20.006270253095
4	47568	13.7	20.105586257293
4	48199	13.8	20.093773900105
4	48830	13.9	20.007765059322
4	49461	14	20.08681763794
4	50092	14.1	20.03101365895
4	50723	14.2	20.118054919983
4	51354	14.3	20.071136262089
4	51985	14.4	19.996292881279
4	52616	14.5	19.995557450061
4	53247	14.6	20.112815384422
4	53878	14.7	20.020447880407
4	54509	14.8	20.0786345808
4	55140	14.9	20.077749298213
4	55771	15	20.093348034176
4	56402	15.1	20.07158761932
4	57033	15.2	20.069555027934
4	57664	15.3	19.998395941041
4	58295	15.4	19.991719461801
4	58926	15.5	20.060629083693
4	59557	15.6	20.105880110017
4	60188	15.7	20.102173798655
4	60819	15.8	20.042797359803
4	61450	15.9	20.035335009657
4	62081	16	20.098288261693
4	62712	16.1	20.053779583336
4	63343	16.2	20.024037375785
4	63974	16.3	20.003332793314
4	64605	16.4	20.012475703275
4	65236	16.5	20.020146274751
4	65867	16.6	20.06115567218
4	66498	16.7	20.110837895144
4	67129	16.8	20.008330207707
4	67760	16.9	20.036364027513
4	68391	17	20.118274200114
4	69022	17.1	20.076169582573
4	69653	17.2	20.058227839526
4	70284	17.3	20.084048722521
4	70915	17.4	20.110349449068
4	71546	17.5	20.040324796487
4	72177	17.6	20.085832674317
4	72808	17.7	20.035076520531
4	73439	17.8	20.104487038963
4	74070	17.9	20.001048119022
4	74701	18	20.051081712868
4	75332	18.1	20.04985965247
4	75963	18.2	20.067818704022
4	76594	18.3	19.994935922804
4	77225	18.4	20.010468443134
4	77856	18.5	20.016729369292
4	78487	18.6	19.998768326682
4	79118	18.7	20.019187797762
4	79749	18.8	20.020436384203
4	80380	18.9	20.041702648557
4	81011	19	19.993099174444
4	81642	19.1	20.059901133147
4	82273	19.2	19.991420301101
4	82904	19.3	20.113772242952
4	83535	19.4	20.077694314423
4	84166	19.5	20.001693353131
4	84797	19.6	20.064320767235
3	2	0.1	416.30025728988
3	12	0.2	416.30025728988
3	22	0.3	414.28907609864
3	32	0.4	412.28849655091
3	42	0.5	410.28740477099
3	52	0.6	408.2781934878
3	62	0.7	406.27102333227
3	72	0.8	404.27106617495
3	82	0.9	402.27189982094
3	92	1	400.26635034947
3	102	1.1	398.25561946739
3	133	1.2	396.25167323976
3	164	1.3	394.24437830544
3	195	1.4	392.23880578365
3	226	1.5	390.23978730933
3	257	1.6	388.23839594453
3	288	1.7	386.2349399874
3	319	1.8	384.23369409969
3	350	1.9	382.2249484693
3	381	2	380.2229863152
3	412	2.1	378.21252945582
3	476	2.2	376.20328483705
3	540	2.3	374.19523518539
3	604	2.4	372.19014412406
3	668	2.5	370.18604431356
3	732	2.6	368.17433535713
3	796	2.7	366.16573334081
3	860	2.8	364.16466970324
3	924	2.9	362.15492406512
3	988	3	360.15032258291
3	1052	3.1	358.14087335316
3	1161	3.2	356.13518076584
3	1270	3.3	354.13341544756
3	1379	3.4	352.1290261893
3	1488	3.5	350.12382849849
3	1597	3.6	348.12474247271
3	1706	3.7	346.12327590932
3	1815	3.8	344.12337255246
3	1924	3.9	342.11757709679
3	2033	4	340.110864621
3	2142	4.1	338.10606970045
3	2308	4.2	336.10047498982
3	2474	4.3	334.09002531966
3	2640	4.4	332.08170611567
3	2806	4.5	330.07716631378
3	2972	4.6	328.06919364462
3	3138	4.7	326.06801714635
3	3304	4.8	324.06163304575
3	3470	4.9	322.06008388242
3	3636	5	320.05917054958
3	3802	5.1	318.05760766867
3	4037	5.2	316.05813717692
3	4272	5.3	314.05850408261
3	4507	5.4	312.051103725
3	4742	5.5	310.045839506
3	4977	5.6	308.03410180361
3	5212	5.7	306.02842140086
3	5447	5.8	304.02232851308
3	5682	5.9	302.01787368337
3	5917	6	300.01639288105
3	6152	6.1	298.01037553268
3	6468	6.2	296.00315658154
3	6784	6.3	293.99439184552
3	7100	6.4	291.98934033175
3	7416	6.5	289.97903188888
3	7732	6.6	287.97625311896
3	8048	6.7	285.9701458754
3	8364	6.8	283.96297393767
3	8680	6.9	281.95788075666
3	8996	7	279.94912950099
3	9312	7.1	277.94170240882
3	9721	7.2	275.93746538599
3	10130	7.3	273.93298919271
3	10539	7.4	271.93391456789
3	10948	7.5	269.9304951637
3	11357	7.6	267.92333766023
3	11766	7.7	265.91966652057
3	12175	7.8	263.91422473982
3	12584	7.9	261.91215197734
3	12993	8	259.90576324752
3	13402	8.1	257.90091157076
3	13916	8.2	255.89078722592
3	14430	8.3	253.88442404974
3	14944	8.4	251.8805307253
3	15458	8.5	249.87002507442
3	15972	8.6	247.86264682889
3	16486	8.7	245.85693663082
3	17000	8.8	243.84711388166
3	17514	8.9	241.84686384761
3	18028	9	239.84497912744
3	18542	9.1	237.84232096918
3	19173	9.2	235.83292197729
3	19804	9.3	233.83135652585
3	20435	9.4	231.8259075938
3	21066	9.5	229.82589537121
3	21697	9.6	227.81439674017
3	22328	9.7	225.80270063185
3	22959	9.8	223.8037584053
3	23590	9.9	221.79192365073
3	24221	10	219.78305022492
3	24852	10.1	217.78364758701
3	25483	10.2	215.77214882216
3	26114	10.3	213.76473902254
3	26745	10.4	211.75674738394
3	27376	10.5	209.7515382781
3	28007	10.6	207.74834020939
3	28638	10.7	205.7395711665
3	29269	10.8	203.73450094816
3	29900	10.9	201.73239372893
3	30531	11	199.727371882
3	31162	11.1	197.72231295534
3	31793	11.2	195.719890297
3	32424	11.3	193.71484106155
3	33055	11.4	191.70952907004
3	33686	11.5	189.71055615826
3	34317	11.6	187.70313529297
3	34948	11.7	185.69807884158
3	35579	11.8	183.69837748056
3	36210	11.9	181.69928519955
3	36841	12	179.69796810016
3	37472	12.1	177.69708443312
3	38103	12.2	175.69539657234
3	38734	12.3	173.69527766891
3	39365	12.4	171.68587449431
3	39996	12.5	169.67656625778
3	40627	12.6	167.67573848308
3	41258	12.7	165.66657393146
3	41889	12.8	163.66201903878
3	42520	12.9	161.65257845993
3	43151	13	159.64264531108
3	43782	13.1	157.63514581318
3	44413	13.2	155.62807042893
3	45044	13.3	153.62337272785
3	45675	13.4	151.62414969331
3	46306	13.5	149.61774392399
3	46937	13.6	147.61850567221
3	47568	13.7	145.61797957652
3	48199	13.8	143.60752238146
3	48830	13.9	141.59824636252
3	49461	14	139.59757079375
3	50092	14.1	137.58899036594
3	50723	14.2	135.5859900545
3	51354	14.3	133.57428605606
3	51985	14.4	131.56727368672
3	52616	14.5	129.56774527789
3	53247	14.6	127.56829040846
3	53878	14.7	125.55711033715
3	54509	14.8	123.55516655026
3	55140	14.9	121.54740438688
3	55771	15	119.53973074728
3	56402	15.1	117.53049731279
3	57033	15.2	115.52343981
3	57664	15.3	113.5165855561
3	58295	15.4	111.5168468519
3	58926	15.5	109.51777576193
3	59557	15.6	107.51181405742
3	60188	15.7	105.50132747857
3	60819	15.8	103.49121151215
3	61450	15.9	101.48703289007
3	62081	16	99.48360046536
3	62712	16.1	97.473873033037
3	63343	16.2	95.468596244008
3	63974	16.3	93.466293525688
3	64605	16.4	91.466061161162
3	65236	16.5	89.464914551766
3	65867	16.6	87.463000923919
3	66498	16.7	85.456986563217
3	67129	16.8	83.446004230861
3	67760	16.9	81.445272150107
3	68391	17	79.441736828801
3	69022	17.1	77.430010903463
3	69653	17.2	75.422495227466
3	70284	17.3	73.416773635259
3	70915	17.4	71.408470085016
3	71546	17.5	69.397536594804
3	72177	17.6	67.393605216581
3	72808	17.7	65.385123280159
3	73439	17.8	63.381716703056
3	74070	17.9	61.371369424278
3	74701	18	59.371365515656
3	75332	18.1	57.366358500063
3	75963	18.2	55.361473684345
3	76594	18.3	53.354793054074
3	77225	18.4	51.355400334238
3	77856	18.5	49.354454440729
3	78487	18.6	47.35288248619
3	79118	18.7	45.3531065453
3	79749	18.8	43.351288760316
3	80380	18.9	41.349346122988
3	81011	19	39.34527696651
3	81642	19.1	37.346067912244
3	82273	19.2	35.340178999116
3	82904	19.3	33.341137823715
3	83535	19.4	31.329862071381
3	84166	19.5	29.322193929891
3	84797	19.6	27.322125501113
2	2	0.1	23.397598627787
2	12	0.2	23.397598627787
2	22	0.3	23.416370058108
2	32	0.4	23.435042537616
2	42	0.5	23.453719798061
2	52	0.6	23.472472842175
2	62	0.7	23.491206835353
2	72	0.8	23.509873505758
2	82	0.9	23.528532795173
2	92	1	23.547251661639
2	102	1.1	23.566018888983
2	133	1.2	23.584722791516
2	164	1.3	23.603457949321
2	195	1.4	23.622177030928
2	226	1.5	23.640834940103
2	257	1.6	23.659514996734
2	288	1.7	23.67821432331
2	319	1.8	23.696893022126
2	350	1.9	23.715641720053
2	381	2	23.734327104167
2	412	2.1	23.75309177391
2	476	2.2	23.771845129163
2	540	2.3	23.790587331149
2	604	2.4	23.809301919028
2	668	2.5	23.828007255032
2	732	2.6	23.846783611267
2	796	2.7	23.865530968768
2	860	2.8	23.884207966546
2	924	2.9	23.90296599808
2	988	3	23.921676016455
2	1052	3.1	23.940431281452
2	1161	3.2	23.959151483695
2	1270	3.3	23.977835030634
2	1379	3.4	23.996543068209
2	1488	3.5	24.015258651318
2	1597	3.6	24.033917190987
2	1706	3.7	24.052597949487
2	1815	3.8	24.071264117744
2	1924	3.9	24.089985280112
2	2033	4	24.108715001519
2	2142	4.1	24.127426825358
2	2308	4.2	24.146146114065
2	2474	4.3	24.164910716708
2	2640	4.4	24.183655434569
2	2806	4.5	24.202364877249
2	2972	4.6	24.221106360716
2	3138	4.7	24.239784411883
2	3304	4.8	24.258511068389
2	3470	4.9	24.277192597838
2	3636	5	24.295868192741
2	3802	5.1	24.314549850224
2	4037	5.2	24.333211978319
2	4272	5.3	24.351875624071
2	4507	5.4	24.370611765848
2	4742	5.5	24.3893279699
2	4977	5.6	24.408104594437
2	5212	5.7	24.426824682955
2	5447	5.8	24.445548621416
2	5682	5.9	24.464257271004
2	5917	6	24.482938162404
2	6152	6.1	24.501661395815
2	6468	6.2	24.520395844428
2	6784	6.3	24.539144720679
2	7100	6.4	24.557858939439
2	7416	6.5	24.576622223932
2	7732	6.6	24.595315229958
2	8048	6.7	24.614039302409
2	8364	6.8	24.632773312221
2	8680	6.9	24.651487919884
2	8996	7	24.670236670315
2	9312	7.1	24.68897306162
2	9721	7.2	24.7076796783
2	10130	7.3	24.726388527287
2	10539	7.4	24.745046960544
2	10948	7.5	24.763745945952
2	11357	7.6	24.782479821041
2	11766	7.7	24.801181156031
2	12175	7.8	24.819899017362
2	12584	7.9	24.838585433843
2	12993	8	24.857312133556
2	13402	8.1	24.87602448713
2	13916	8.2	24.894786053338
2	14430	8.3	24.913512514545
2	14944	8.4	24.932215923305
2	15458	8.5	24.950981048445
2	15972	8.6	24.969716983838
2	16486	8.7	24.988437350451
2	17000	8.8	25.007196101705
2	17514	8.9	25.025865505686
2	18028	9	25.044550167066
2	18542	9.1	25.063242047359
2	19173	9.2	25.081996843459
2	19804	9.3	25.100678524934
2	20435	9.4	25.119396453012
2	21066	9.5	25.138063637371
2	21697	9.6	25.156838030527
2	22328	9.7	25.175614266844
2	22959	9.8	25.194271464357
2	23590	9.9	25.213048994734
2	24221	10	25.231798885444
2	24852	10.1	25.250460380223
2	25483	10.2	25.269234774628
2	26114	10.3	25.287971004532
2	26745	10.4	25.306712665051
2	27376	10.5	25.325428354702
2	28007	10.6	25.344125274268
2	28638	10.7	25.362874190717
2	29269	10.8	25.381588584057
2	29900	10.9	25.400275322141
2	30531	11	25.418989264004
2	31162	11.1	25.437703551953
2	31793	11.2	25.456393234199
2	32424	11.3	25.475107431694
2	33055	11.4	25.493824081633
2	33686	11.5	25.512481565548
2	34317	11.6	25.531217898734
2	34948	11.7	25.549932163579
2	35579	11.8	25.568596446501
2	36210	11.9	25.587255044553
2	36841	12	25.605934408025
2	37472	12.1	25.624609726042
2	38103	12.2	25.643292550029
2	38734	12.3	25.661960730097
2	39365	12.4	25.680715565236
2	39996	12.5	25.699469514268
2	40627	12.6	25.718144310611
2	41258	12.7	25.736896918555
2	41889	12.8	25.755606502085
2	42520	12.9	25.774361686338
2	43151	13	25.793121468011
2	43782	13.1	25.811858535117
2	44413	13.2	25.830591643744
2	45044	13.3	25.849302560181
2	45675	13.4	25.867962378626
2	46306	13.5	25.886689237378
2	46937	13.6	25.905349197853
2	47568	13.7	25.924021178464
2	48199	13.8	25.942785851341
2	48830	13.9	25.961539499669
2	49461	14	25.980212875393
2	50092	14.1	25.998960031396
2	50723	14.2	26.017655105187
2	51354	14.3	26.036431415147
2	51985	14.4	26.055163935622
2	52616	14.5	26.073826604288
2	53247	14.6	26.092488586572
2	53878	14.7	26.111260006439
2	54509	14.8	26.129945219121
2	55140	14.9	26.148684737825
2	55771	15	26.167423430289
2	56402	15.1	26.186176681153
2	57033	15.2	26.204909622882
2	57664	15.3	26.223640667581
2	58295	15.4	26.242305299046
2	58926	15.5	26.260963699311
2	59557	15.6	26.279686413368
2	60188	15.7	26.2984513605
2	60819	15.8	26.317212848507
2	61450	15.9	26.335918920102
2	62081	16	26.354618027037
2	62712	16.1	26.373375888648
2	63343	16.2	26.392092210023
2	63974	16.3	26.410780772804
2	64605	16.4	26.429450011865
2	65236	16.5	26.448127784064
2	65867	16.6	26.466812715255
2	66498	16.7	26.485535920781
2	67129	16.8	26.504305495045
2	67760	16.9	26.522979398226
2	68391	17	26.54167946555
2	69022	17.1	26.560455980165
2	69653	17.2	26.57919319827
2	70284	17.3	26.597913671231
2	70915	17.4	26.616658242988
2	71546	17.5	26.635427361382
2	72177	17.6	26.654131125318
2	72808	17.7	26.672877362049
2	73439	17.8	26.691576227735
2	74070	17.9	26.710339874704
2	74701	18	26.729006981464
2	75332	18.1	26.747720784899
2	75963	18.2	26.766433447777
2	76594	18.3	26.785162871954
2	77225	18.4	26.803824274162
2	77856	18.5	26.822500172971
2	78487	18.6	26.841181915143
2	79118	18.7	26.859846894159
2	79749	18.8	26.878530930798
2	80380	18.9	26.89721613275
2	81011	19	26.915921182644
2	81642	19.1	26.934580870604
2	82273	19.2	26.95330290526
2	82904	19.3	26.971961026316
2	83535	19.4	26.990733339226
2	84166	19.5	27.009471980373
2	84797	19.6	27.028139689334
13	164	1.3	4.3770661582768
13	195	1.4	4.2211288298667
13	226	1.5	3.5158482857451
13	257	1.6	3.50532569385
13	288	1.7	0.973
13	319	1.8	4.6914704359456
13	350	1.9	4.6117919678189
13	381	2	0.973
13	412	2.1	6.6395671175678
13	476	2.2	3.8067693944698
13	540	2.3	0.973
13	604	2.4	3.6814206633044
13	668	2.5	4.2516250846331
13	732	2.6	3.9174937573008
13	796	2.7	1.3529975430797
13	860	2.8	0.973
13	924	2.9	2.3649640023565
13	988	3	8.333339928999
13	1052	3.1	3.2499935727736
13	1161	3.2	0.973
13	1270	3.3	7.0988623245602
13	1379	3.4	2.9671760651042
13	1488	3.5	0.973
13	1597	3.6	5.2233513117175
13	1706	3.7	0.973
13	1815	3.8	8.3060941064669
13	1924	3.9	0.973
13	2033	4	3.8678760912743
13	2142	4.1	3.0859233313478
13	2308	4.2	1.7871383941636
13	2474	4.3	7.1288692093861
13	2640	4.4	2.9872697914126
13	2806	4.5	0.973
13	2972	4.6	5.600439606621
13	3138	4.7	3.4668622165882
13	3304	4.8	0.973
13	3470	4.9	6.0785295143519
13	3636	5	0.973
13	3802	5.1	4.6595368071338
13	4037	5.2	1.3676821092934
13	4272	5.3	5.8026105332508
13	4507	5.4	2.8993453997821
13	4742	5.5	0.973
13	4977	5.6	3.4507523194597
13	5212	5.7	2.8763208312245
13	5447	5.8	3.1268049354211
13	5682	5.9	5.2706030605506
13	5917	6	5.0841325508451
13	6152	6.1	0.973
13	6468	6.2	2.3214548100705
13	6784	6.3	5.6671421219396
13	7100	6.4	0.973
13	7416	6.5	2.5467414823468
13	7732	6.6	3.8401473337613
13	8048	6.7	5.0754792396764
13	8364	6.8	3.0772238021181
13	8680	6.9	2.4244176315555
13	8996	7	3.8906927796654
13	9312	7.1	0.973
13	9721	7.2	7.5879986306554
13	10130	7.3	0.973
13	10539	7.4	4.3581672319531
13	10948	7.5	6.2973004815253
13	11357	7.6	0.973
13	11766	7.7	0.973
13	12175	7.8	5.0634671992287
13	12584	7.9	5.2549697048609
13	12993	8	1.9019904837594
13	13402	8.1	4.2848749082675
13	13916	8.2	1.6367273943927
13	14430	8.3	0.81787993817402
13	14944	8.4	4.4314587921968
13	15458	8.5	3.7166896497177
13	15972	8.6	0.973
13	16486	8.7	1.9272010265759
13	17000	8.8	2.533489887147
13	17514	8.9	3.94080905791
13	18028	9	1.5018320200972
13	18542	9.1	7.2895599051056
13	19173	9.2	3.7312097986324
13	19804	9.3	0.973
13	20435	9.4	5.5426625756795
13	21066	9.5	3.4743289138962
13	21697	9.6	1.965187387651
13	22328	9.7	0.973
13	22959	9.8	3.9565530011957
13	23590	9.9	5.655355676785
13	24221	10	0.74840357440529
13	24852	10.1	4.3226980175166
13	25483	10.2	0.81860795915002
13	26114	10.3	4.2846007283877
13	26745	10.4	3.8185823909508
13	27376	10.5	0.973
13	28007	10.6	2.2171761121752
13	28638	10.7	6.4536105695346
13	29269	10.8	0.973
13	29900	10.9	7.318072122715
13	30531	11	1.2207364064494
13	31162	11.1	0.973
13	31793	11.2	3.9493077406382
13	32424	11.3	4.8625947632732
13	33055	11.4	4.3478693975172
13	33686	11.5	0.973
13	34317	11.6	4.5749381955983
13	34948	11.7	0.973
13	35579	11.8	2.7165304051586
13	36210	11.9	7.9530606934208
13	36841	12	1.0695057958073
13	37472	12.1	0.973
13	38103	12.2	7.8111076606925
13	38734	12.3	0.973
13	39365	12.4	7.81315211809
13	39996	12.5	0.973
13	40627	12.6	6.3979253706505
13	41258	12.7	4.9031717759669
13	41889	12.8	0.973
13	42520	12.9	5.6109959962957
13	43151	13	3.1214595874416
13	43782	13.1	2.6894030046954
13	44413	13.2	0.973
13	45044	13.3	7.8067679976862
13	45675	13.4	0.66778008608937
13	46306	13.5	0.973
13	46937	13.6	4.3680346474006
13	47568	13.7	6.418604042767
13	48199	13.8	3.6018841180847
13	48830	13.9	1.5147219055049
13	49461	14	0.973
13	50092	14.1	2.6742216982154
13	50723	14.2	3.5386716859606
13	51354	14.3	6.4898916695726
13	51985	14.4	0.973
13	52616	14.5	0.973
13	53247	14.6	2.9360262884655
13	53878	14.7	7.8325113247779
13	54509	14.8	3.4190097338928
13	55140	14.9	1.5975736882418
13	55771	15	2.1877858294169
13	56402	15.1	2.4000409526275
13	57033	15.2	2.8334974512446
13	57664	15.3	0.973
13	58295	15.4	4.9731366439458
13	58926	15.5	3.1714867557413
13	59557	15.6	0.973
13	60188	15.7	8.20796257835
13	60819	15.8	0.973
13	61450	15.9	6.0210931341883
13	62081	16	0.973
13	62712	16.1	4.012931192043
13	63343	16.2	1.325055424588
13	63974	16.3	4.7312394564635
13	64605	16.4	0.75995965294922
13	65236	16.5	6.5620829358381
13	65867	16.6	3.5996540249255
13	66498	16.7	0.91361998538678
13	67129	16.8	3.997997337894
13	67760	16.9	2.1841018903124
13	68391	17	0.973
13	69022	17.1	8.6128271286371
13	69653	17.2	0.61546164233393
13	70284	17.3	1.9080934347032
13	70915	17.4	5.5436875241141
13	71546	17.5	1.0256655955288
13	72177	17.6	1.0618427170782
13	72808	17.7	3.7557402223637
13	73439	17.8	0.973
13	74070	17.9	3.5651062343565
13	74701	18	6.3857848545335
13	75332	18.1	2.3040318493357
13	75963	18.2	1.4658705540958
13	76594	18.3	2.0210077501475
13	77225	18.4	0.96795985988328
13	77856	18.5	3.1038771070868
13	78487	18.6	5.8500120507473
13	79118	18.7	0.973
13	79749	18.8	7.1842013382646
13	80380	18.9	2.326967570751
13	81011	19	3.0171043814535
13	81642	19.1	2.6590223562234
13	82273	19.2	2.7059229465551
13	82904	19.3	0.973
13	83535	19.4	6.8073282407232
13	84166	19.5	2.6751960661545
13	84797	19.6	1.7593417202954
13	85428	19.7	3.9684596116544
13	85942	19.8	2.0450279754104
13	86456	19.9	2.8163173202854
13	86970	20	4.5464373379525
13	87484	20.1	3.7072300550122
13	87998	20.2	0.973
13	88512	20.3	4.4572933699245
13	89026	20.4	3.0998288411111
13	89540	20.5	0.973
13	90054	20.6	0.66200310530688
12	164	1.3	0.3217368295649
12	195	1.4	0.28810274403074
12	226	1.5	0.14180305060002
12	257	1.6	0.13907394451088
12	288	1.7	-0.85500873250421
12	319	1.8	0.38627039091661
12	350	1.9	0.3678991670953
12	381	2	-0.93811532007528
12	412	2.1	0.78760573936158
12	476	2.2	0.2014884373639
12	540	2.3	-0.66260031189305
12	604	2.4	0.17764748409391
12	668	2.5	0.29421193699818
12	732	2.6	0.2241929125972
12	796	2.7	-0.30446117841638
12	860	2.8	-0.73430120102131
12	924	2.9	-0.092975363158594
12	988	3	1.135396385123
12	1052	3.1	0.086114774760802
12	1161	3.2	-0.8781981671229
12	1270	3.3	0.87998367699328
12	1379	3.4	0.027678197179917
12	1488	3.5	-0.82959889913909
12	1597	3.6	0.49490684771445
12	1706	3.7	-0.79480114614125
12	1815	3.8	1.1287495389348
12	1924	3.9	-1.2730308811879
12	2033	4	0.21805714191867
12	2142	4.1	0.055741900415178
12	2308	4.2	-0.2129730514018
12	2474	4.3	0.88846472122242
12	2640	4.4	0.032833751919696
12	2806	4.5	-0.5321781666251
12	2972	4.6	0.57229278606826
12	3138	4.7	0.13120672560763
12	3304	4.8	-0.61379323604051
12	3470	4.9	0.6697711434914
12	3636	5	-0.77030104305596
12	3802	5.1	0.37906326861119
12	4037	5.2	-0.30082624540661
12	4272	5.3	0.61334951345341
12	4507	5.4	0.014124695025401
12	4742	5.5	-1.1183585598134
12	4977	5.6	0.13181505426765
12	5212	5.7	0.012644921150056
12	5447	5.8	0.06435469603165
12	5682	5.9	0.50582063936165
12	5917	6	0.46464797772931
12	6152	6.1	-0.84367396829183
12	6468	6.2	-0.10266464899761
12	6784	6.3	0.58716011152139
12	7100	6.4	-0.50144245331175
12	7416	6.5	-0.056057163258103
12	7732	6.6	0.21107854137664
12	8048	6.7	0.46421773438343
12	8364	6.8	0.051292731100681
12	8680	6.9	-0.083270044671373
12	8996	7	0.21867757989092
12	9312	7.1	-0.93420230026823
12	9721	7.2	0.98126647721511
12	10130	7.3	-0.99564945227467
12	10539	7.4	0.31822350483854
12	10948	7.5	0.7147249969654
12	11357	7.6	-0.55668019959704
12	11766	7.7	-0.65242520705798
12	12175	7.8	0.46439510385973
12	12584	7.9	0.5011322706472
12	12993	8	-0.19088580906391
12	13402	8.1	0.3002600724809
12	13916	8.2	-0.24583412834907
12	14430	8.3	-0.41454741805794
12	14944	8.4	0.33214326170274
12	15458	8.5	0.18359083242249
12	15972	8.6	-0.50379035079388
12	16486	8.7	-0.1844064183766
12	17000	8.8	-0.058565081818962
12	17514	8.9	0.23217794841621
12	18028	9	-0.27238076392095
12	18542	9.1	0.92054643754384
12	19173	9.2	0.18524076140018
12	19804	9.3	-1.0008402292616
12	20435	9.4	0.5614977544872
12	21066	9.5	0.13347750904504
12	21697	9.6	-0.17779944904614
12	22328	9.7	-0.67144492606168
12	22959	9.8	0.23582302089782
12	23590	9.9	0.58414179000536
12	24221	10	-0.42901719715445
12	24852	10.1	0.30942603910809
12	25483	10.2	-0.41435401351194
12	26114	10.3	0.30209124765825
12	26745	10.4	0.20482524496039
12	27376	10.5	-0.71689802843611
12	28007	10.6	-0.12377835251392
12	28638	10.7	0.74987151219975
12	29269	10.8	-0.49706335468219
12	29900	10.9	0.92516325486361
12	30531	11	-0.3319087801734
12	31162	11.1	-0.89945994433947
12	31793	11.2	0.23477907904887
12	32424	11.3	0.42180559004191
12	33055	11.4	0.31380637539552
12	33686	11.5	-0.568196507846
12	34317	11.6	0.36175570532215
12	34948	11.7	-0.62325418535622
12	35579	11.8	-0.020390217588293
12	36210	11.9	1.0566006052541
12	36841	12	-0.36302460457666
12	37472	12.1	-0.74668048338499
12	38103	12.2	1.0280016163597
12	38734	12.3	-0.92172453829555
12	39365	12.4	1.0275326996111
12	39996	12.5	-1.1862235138193
12	40627	12.6	0.73870917742603
12	41258	12.7	0.42734639325648
12	41889	12.8	-1.1141194739146
12	42520	12.9	0.57669263340067
12	43151	13	0.061479906202315
12	43782	13.1	-0.027780872536844
12	44413	13.2	-0.55312685787211
12	45044	13.3	1.0266395304585
12	45675	13.4	-0.44593759025446
12	46306	13.5	-0.71564082957341
12	46937	13.6	0.321204238059
12	47568	13.7	0.74090076286812
12	48199	13.8	0.15875949650074
12	48830	13.9	-0.27124854822176
12	49461	14	-0.65783219370061
12	50092	14.1	-0.029578286805183
12	50723	14.2	0.14899082530754
12	51354	14.3	0.75488306488843
12	51985	14.4	-0.58452348562422
12	52616	14.5	-0.49475987940095
12	53247	14.6	0.025199882220477
12	53878	14.7	1.0320989793865
12	54509	14.8	0.12086386834273
12	55140	14.9	-0.2542595448671
12	55771	15	-0.13203387877436
12	56402	15.1	-0.087923296471146
12	57033	15.2	0.0016759415855816
12	57664	15.3	-0.53074478146154
12	58295	15.4	0.44445793442428
12	58926	15.5	0.071598812472047
12	59557	15.6	-0.72621878311036
12	60188	15.7	1.1094277914614
12	60819	15.8	-0.72476120535285
12	61450	15.9	0.65862236453686
12	62081	16	-0.97523460381201
12	62712	16.1	0.24741682789756
12	63343	16.2	-0.30885780008976
12	63974	16.3	0.39576195115224
12	64605	16.4	-0.42606774347369
12	65236	16.5	0.77239266182296
12	65867	16.6	0.15937008678449
12	66498	16.7	-0.39489662703129
12	67129	16.8	0.24233523509466
12	67760	16.9	-0.13225576640107
12	68391	17	-0.61546256861185
12	69022	17.1	1.192132023396
12	69653	17.2	-0.4568382340949
12	70284	17.3	-0.18918191893025
12	70915	17.4	0.5596535353223
12	71546	17.5	-0.37203959540932
12	72177	17.6	-0.36401952439917
12	72808	17.7	0.19304842138663
12	73439	17.8	-0.47305124958513
12	74070	17.9	0.15490295735653
12	74701	18	0.73429187363946
12	75332	18.1	-0.10815606091636
12	75963	18.2	-0.28076693890618
12	76594	18.3	-0.16551713561636
12	77225	18.4	-0.38300664660056
12	77856	18.5	0.05984100324568
12	78487	18.6	0.62529119886456
12	79118	18.7	-0.77444412466139
12	79749	18.8	0.90012430720964
12	80380	18.9	-0.10307868353557
12	81011	19	0.039436719217356
12	81642	19.1	-0.034457481838785
12	82273	19.2	-0.024684662721128
12	82904	19.3	-0.73220110691615
12	83535	19.4	0.82250378835013
12	84166	19.5	-0.031222766335119
12	84797	19.6	-0.22001004796476
12	85428	19.7	0.23597505607178
12	85942	19.8	-0.16109194096646
12	86456	19.9	-0.0015746951801532
12	86970	20	0.3544390943367
12	87484	20.1	0.18042644700035
12	87998	20.2	-0.4832572026411
12	88512	20.3	0.33587090554647
12	89026	20.4	0.055470804614011
12	89540	20.5	-0.61637811730616
12	90054	20.6	-0.44645184783729
11	133	1.2	20.020431978183
11	164	1.3	20.05260566114
11	195	1.4	20.081415935543
11	226	1.5	20.095596240603
11	257	1.6	20.109503635054
11	288	1.7	20.024002761804
11	319	1.8	20.062629800895
11	350	1.9	20.099419717605
11	381	2	20.005608185597
11	412	2.1	20.084368759533
11	476	2.2	20.10451760327
11	540	2.3	20.03825757208
11	604	2.4	20.05602232049
11	668	2.5	20.08544351419
11	732	2.6	20.107862805449
11	796	2.7	20.077416687608
11	860	2.8	20.003986567506
11	924	2.9	19.99468903119
11	988	3	20.108228669702
11	1052	3.1	20.116840147178
11	1161	3.2	20.029020330466
11	1270	3.3	20.117018698165
11	1379	3.4	20.119786517883
11	1488	3.5	20.036826627969
11	1597	3.6	20.086317312741
11	1706	3.7	20.006837198127
11	1815	3.8	20.11971215202
11	1924	3.9	19.992409063901
11	2033	4	20.014214778093
11	2142	4.1	20.019788968135
11	2308	4.2	19.998491662994
11	2474	4.3	20.087338135117
11	2640	4.4	20.090621510309
11	2806	4.5	20.037403693646
11	2972	4.6	20.094632972253
11	3138	4.7	20.107753644814
11	3304	4.8	20.04637432121
11	3470	4.9	20.113351435559
11	3636	5	20.036321331253
11	3802	5.1	20.074227658114
11	4037	5.2	20.044145033574
11	4272	5.3	20.105479984919
11	4507	5.4	20.106892454422
11	4742	5.5	19.99505659844
11	4977	5.6	20.008238103867
11	5212	5.7	20.009502595982
11	5447	5.8	20.015938065585
11	5682	5.9	20.066520129521
11	5917	6	20.112984927294
11	6152	6.1	20.028617530465
11	6468	6.2	20.018351065565
11	6784	6.3	20.077067076718
11	7100	6.4	20.026922831386
11	7416	6.5	20.021317115061
11	7732	6.6	20.042424969198
11	8048	6.7	20.088846742637
11	8364	6.8	20.093976015747
11	8680	6.9	20.085649011279
11	8996	7	20.107516769269
11	9312	7.1	20.014096539242
11	9721	7.2	20.112223186963
11	10130	7.3	20.012658241736
11	10539	7.4	20.04448059222
11	10948	7.5	20.115953091916
11	11357	7.6	20.060285071956
11	11766	7.7	19.995042551251
11	12175	7.8	20.041482061637
11	12584	7.9	20.091595288701
11	12993	8	20.072506707795
11	13402	8.1	20.102532715043
11	13916	8.2	20.077949302208
11	14430	8.3	20.036494560402
11	14944	8.4	20.069708886573
11	15458	8.5	20.088067969815
11	15972	8.6	20.037688934735
11	16486	8.7	20.019248292898
11	17000	8.8	20.013391784716
11	17514	8.9	20.036609579558
11	18028	9	20.009371503165
11	18542	9.1	20.10142614692
11	19173	9.2	20.11995022306
11	19804	9.3	20.019866200134
11	20435	9.4	20.076015975582
11	21066	9.5	20.089363726487
11	21697	9.6	20.071583781582
11	22328	9.7	20.004439288976
11	22959	9.8	20.028021591066
11	23590	9.9	20.086435770066
11	24221	10	20.043534050351
11	24852	10.1	20.074476654262
11	25483	10.2	20.033041252911
11	26114	10.3	20.063250377676
11	26745	10.4	20.083732902172
11	27376	10.5	20.012043099329
11	28007	10.6	19.999665264077
11	28638	10.7	20.074652415297
11	29269	10.8	20.024946079829
11	29900	10.9	20.117462405316
11	30531	11	20.084271527298
11	31162	11.1	19.994325532864
11	31793	11.2	20.017803440769
11	32424	11.3	20.059983999773
11	33055	11.4	20.091364637313
11	33686	11.5	20.034544986528
11	34317	11.6	20.070720557061
11	34948	11.7	20.008395138525
11	35579	11.8	20.006356116766
11	36210	11.9	20.112016177292
11	36841	12	20.075713716834
11	37472	12.1	20.001045668495
11	38103	12.2	20.103845830131
11	38734	12.3	20.011673376302
11	39365	12.4	20.114426646263
11	39996	12.5	19.995804294881
11	40627	12.6	20.069675212624
11	41258	12.7	20.112409851949
11	41889	12.8	20.000997904558
11	42520	12.9	20.058667167898
11	43151	13	20.064815158518
11	43782	13.1	20.062037071264
11	44413	13.2	20.006724385477
11	45044	13.3	20.109388338523
11	45675	13.4	20.064794579498
11	46306	13.5	19.99323049654
11	46937	13.6	20.025350920346
11	47568	13.7	20.099440996633
11	48199	13.8	20.115316946283
11	48830	13.9	20.088192091461
11	49461	14	20.022408872091
11	50092	14.1	20.01945104341
11	50723	14.2	20.034350125941
11	51354	14.3	20.10983843243
11	51985	14.4	20.051386083867
11	52616	14.5	20.001910095927
11	53247	14.6	20.004430084149
11	53878	14.7	20.107639982088
11	54509	14.8	20.119726368922
11	55140	14.9	20.094300414436
11	55771	15	20.081097026558
11	56402	15.1	20.072304696911
11	57033	15.2	20.07247229107
11	57664	15.3	20.019397812923
11	58295	15.4	20.063843606366
11	58926	15.5	20.071003487613
11	59557	15.6	19.998381609302
11	60188	15.7	20.109324388448
11	60819	15.8	20.036848267913
11	61450	15.9	20.102710504367
11	62081	16	20.005187043985
11	62712	16.1	20.029928726775
11	63343	16.2	19.999042946766
11	63974	16.3	20.038619141881
11	64605	16.4	19.996012367534
11	65236	16.5	20.073251633716
11	65867	16.6	20.089188642395
11	66498	16.7	20.049698979692
11	67129	16.8	20.073932503201
11	67760	16.9	20.060706926561
11	68391	17	19.9991606697
11	69022	17.1	20.118373872039
11	69653	17.2	20.07269004863
11	70284	17.3	20.053771856737
11	70915	17.4	20.109737210269
11	71546	17.5	20.072533250728
11	72177	17.6	20.036131298288
11	72808	17.7	20.055436140427
11	73439	17.8	20.008131015468
11	74070	17.9	20.023621311204
11	74701	18	20.097050498568
11	75332	18.1	20.086234892476
11	75963	18.2	20.058158198586
11	76594	18.3	20.041606485024
11	77225	18.4	20.003305820364
11	77856	18.5	20.009289920689
11	78487	18.6	20.071819040575
11	79118	18.7	19.994374628109
11	79749	18.8	20.08438705883
11	80380	18.9	20.074079190476
11	81011	19	20.078022862398
11	81642	19.1	20.074577114214
11	82273	19.2	20.072108647942
11	82904	19.3	19.99888853725
11	83535	19.4	20.081138916085
11	84166	19.5	20.078016639452
11	84797	19.6	20.056015634655
11	85428	19.7	20.079613140263
11	85942	19.8	20.063503946166
11	86456	19.9	20.063346476648
11	86970	20	20.098790386082
11	87484	20.1	20.116833030782
11	87998	20.2	20.068507310518
11	88512	20.3	20.102094401072
11	89026	20.4	20.107641481534
11	89540	20.5	20.046003669803
11	90054	20.6	20.001358485019
10	102	1.1	416.34012864494
10	133	1.2	416.34012864494
10	164	1.3	414.33813594766
10	195	1.4	412.33292596323
10	226	1.5	410.32483502404
10	257	1.6	408.31532609012
10	288	1.7	406.30442645182
10	319	1.8	404.30207668518
10	350	1.9	402.29586431207
10	381	2	400.28597304009
10	412	2.1	398.28546268467
10	476	2.2	396.27707647053
10	540	2.3	394.26667542284
10	604	2.4	392.26290021113
10	668	2.5	390.25734856939
10	732	2.6	388.2488548825
10	796	2.7	386.23811932302
10	860	2.8	384.23042829854
10	924	2.9	382.23008010084
10	988	3	380.23066163332
10	1052	3.1	378.21988948835
10	1161	3.2	376.20825621735
10	1270	3.3	374.2054047065
10	1379	3.4	372.19375358086
10	1488	3.5	370.18182568022
10	1597	3.6	368.17819355931
10	1706	3.7	366.16961249476
10	1815	3.8	364.16897924119
10	1924	3.9	362.15705877696
10	2033	4	360.15786830041
10	2142	4.1	358.15649730746
10	2308	4.2	356.15456890956
10	2474	4.3	354.15477018845
10	2640	4.4	352.14608704424
10	2806	4.5	350.13707557079
10	2972	4.6	348.13338574477
10	3138	4.7	346.12397313525
10	3304	4.8	344.11324849157
10	3470	4.9	342.10866162542
10	3636	5	340.09737721678
10	3802	5.1	338.09379562427
10	4037	5.2	336.08642349469
10	4272	5.3	334.08205955169
10	4507	5.4	332.07156226826
10	4742	5.5	330.06092374144
10	4977	5.6	328.06146851813
10	5212	5.7	326.06069517751
10	5447	5.8	324.05979539088
10	5682	5.9	322.05825207352
10	5917	6	320.05165067736
10	6152	6.1	318.04040291863
10	6468	6.2	316.03759168676
10	6784	6.3	314.03580707549
10	7100	6.4	312.02815101121
10	7416	6.5	310.02550924498
10	7732	6.6	308.02342803624
10	8048	6.7	306.01923609533
10	8364	6.8	304.01040209418
10	8680	6.9	302.00105517865
10	8996	7	299.99254094256
10	9312	7.1	297.98183998584
10	9721	7.2	295.98048081647
10	10130	7.3	293.96930922984
10	10539	7.4	291.9680938866
10	10948	7.5	289.96369638857
10	11357	7.6	287.95215182086
10	11766	7.7	285.94617391473
10	12175	7.8	283.94672009609
10	12584	7.9	281.94262244356
10	12993	8	279.93351359473
10	13402	8.1	277.92631355584
10	13916	8.2	275.91611099197
10	14430	8.3	273.90836670737
10	14944	8.4	271.90476779238
10	15458	8.5	269.89784752856
10	15972	8.6	267.88909140272
10	16486	8.7	265.88537305331
10	17000	8.8	263.88349872157
10	17514	8.9	261.88221002587
10	18028	9	259.87859960926
10	18542	9.1	257.87771293158
10	19173	9.2	255.86762102172
10	19804	9.3	253.85567675098
10	20435	9.4	251.85374063008
10	21066	9.5	249.84618967326
10	21697	9.6	247.83730397502
10	22328	9.7	245.83019622643
10	22959	9.8	243.82980275772
10	23590	9.9	241.8270511183
10	24221	10	239.81845820832
10	24852	10.1	237.81415536209
10	25483	10.2	235.80675833352
10	26114	10.3	233.80350474057
10	26745	10.4	231.79723031135
10	27376	10.5	229.78890768134
10	28007	10.6	227.78775385078
10	28638	10.7	225.78783777252
10	29269	10.8	223.7804231683
10	29900	10.9	221.77797907223
10	30531	11	219.76628357699
10	31162	11.1	217.75790708583
10	31793	11.2	215.75852496723
10	32424	11.3	213.75679511705
10	33055	11.4	211.75084731738
10	33686	11.5	209.74176153311
10	34317	11.6	207.73835757059
10	34948	11.7	205.73133614227
10	35579	11.8	203.73054709859
10	36210	11.9	201.72996195194
10	36841	12	199.71881106576
10	37472	12.1	197.71129033406
10	38103	12.2	195.71123621884
10	38734	12.3	193.70090234677
10	39365	12.4	191.69978548758
10	39996	12.5	189.68839356059
10	40627	12.6	187.68886356951
10	41258	12.7	185.681946673
10	41889	12.8	183.67075642035
10	42520	12.9	181.6707070814
10	43151	13	179.6648909616
10	43782	13.1	177.65846005823
10	44413	13.2	175.65230695659
10	45044	13.3	173.651684984
10	45675	13.4	171.64079687507
10	46306	13.5	169.63436802956
10	46937	13.6	167.63509541182
10	47568	13.7	165.63261083273
10	48199	13.8	163.6227174329
10	48830	13.9	161.61123647815
10	49461	14	159.60246794046
10	50092	14.1	157.60027755877
10	50723	14.2	155.59838295249
10	51354	14.3	153.59499847554
10	51985	14.4	151.58406535835
10	52616	14.5	149.57897732858
10	53247	14.6	147.5788367728
10	53878	14.7	145.57844422456
10	54509	14.8	143.56773094686
10	55140	14.9	141.55580906097
10	55771	15	139.54642970639
10	56402	15.1	137.53837065729
10	57033	15.2	135.53119081898
10	57664	15.3	133.52399422168
10	58295	15.4	131.52210493831
10	58926	15.5	129.51577118771
10	59557	15.6	127.50872146705
10	60188	15.7	125.50893375104
10	60819	15.8	123.49805203695
10	61450	15.9	121.4944177521
10	62081	16	119.48419740975
10	62712	16.1	117.48372916743
10	63343	16.2	115.48078681924
10	63974	16.3	113.48093297115
10	64605	16.4	111.47712160337
10	65236	16.5	109.47757080555
10	65867	16.6	107.47029627595
10	66498	16.7	105.46142808568
10	67129	16.8	103.45650876207
10	67760	16.9	101.44916614724
10	68391	17	99.443146056708
10	69022	17.1	97.443280436617
10	69653	17.2	95.431493797001
10	70284	17.3	93.424275424491
10	70915	17.4	91.41894882345
10	71546	17.5	89.408025828226
10	72177	17.6	87.400823135111
10	72808	17.7	85.397260545417
10	73439	17.8	83.391767520206
10	74070	17.9	81.391004888165
10	74701	18	79.388693265624
10	75332	18.1	77.379038909568
10	75963	18.2	75.37046608684
10	76594	18.3	73.364700862679
10	77225	18.4	71.360590768123
10	77856	18.5	69.360310643421
10	78487	18.6	67.359432123782
10	79118	18.7	65.35230084988
10	79749	18.8	63.352913821876
10	80380	18.9	61.344525777851
10	81011	19	59.33716849466
10	81642	19.1	57.329416854225
10	82273	19.2	55.322009779917
10	82904	19.3	53.314849546009
10	83535	19.4	51.315011138477
10	84166	19.5	49.306947900533
10	84797	19.6	47.299196882377
10	85428	19.7	45.293645909204
10	85942	19.8	43.285735244994
10	86456	19.9	41.279435459559
10	86970	20	39.273151420679
10	87484	20.1	37.26332308026
10	87998	20.2	35.251690520884
10	88512	20.3	33.244890411634
10	89026	20.4	31.234731678051
10	89540	20.5	29.224018250414
10	90054	20.6	27.219468448472
9	102	1.1	26.697598627787
9	133	1.2	26.697598627787
9	164	1.3	26.716283825628
9	195	1.4	26.734999051374
9	226	1.5	26.753741165934
9	257	1.6	26.772496515063
9	288	1.7	26.791264844054
9	319	1.8	26.80995337453
9	350	1.9	26.828677955869
9	381	2	26.847436873475
9	412	2.1	26.866108236175
9	476	2.2	26.884853106624
9	540	2.3	26.903616782119
9	604	2.4	26.922318616701
9	668	2.5	26.941037031237
9	732	2.6	26.959782904762
9	796	2.7	26.978549702356
9	860	2.8	26.997288084392
9	924	2.9	27.015957933625
9	988	3	27.034619105408
9	1052	3.1	27.053386244465
9	1161	3.2	27.072161420669
9	1270	3.3	27.090854634074
9	1379	3.4	27.109629976921
9	1488	3.5	27.128407902992
9	1597	3.6	27.147108402065
9	1706	3.7	27.165855091112
9	1815	3.8	27.184527600857
9	1924	3.9	27.203305457522
9	2033	4	27.221964501396
9	2142	4.1	27.240643896684
9	2308	4.2	27.259328494399
9	2474	4.3	27.277993215203
9	2640	4.4	27.296740856989
9	2806	4.5	27.315491563171
9	2972	4.6	27.334192600823
9	3138	4.7	27.352947050928
9	3304	4.8	27.371713746642
9	3470	4.9	27.390423156638
9	3636	5	27.409195076805
9	3802	5.1	27.427895104281
9	4037	5.2	27.446630509976
9	4272	5.3	27.465337839363
9	4507	5.4	27.484102413055
9	4742	5.5	27.502868305014
9	4977	5.6	27.521529819849
9	5212	5.7	27.540203637069
9	5447	5.8	27.558878634447
9	5682	5.9	27.57755963809
9	5917	6	27.596287850298
9	6152	6.1	27.615059428401
9	6468	6.2	27.63375226587
9	6784	6.3	27.652435521582
9	7100	6.4	27.671173577324
9	7416	6.5	27.68986483312
9	7732	6.6	27.708550857064
9	8048	6.7	27.727256581105
9	8364	6.8	27.746005630884
9	8680	6.9	27.764759467848
9	8996	7	27.783505533165
9	9312	7.1	27.802272007801
9	9721	7.2	27.820951292735
9	10130	7.3	27.839722159901
9	10539	7.4	27.858400102463
9	10948	7.5	27.87710774503
9	11357	7.6	27.89588209334
9	11766	7.7	27.914604486329
9	12175	7.8	27.933265988055
9	12584	7.9	27.951970832073
9	12993	8	27.970722447089
9	13402	8.1	27.989456246609
9	13916	8.2	28.008218069595
9	14430	8.3	28.026956948724
9	14944	8.4	28.045657137876
9	15458	8.5	28.064388326172
9	15972	8.6	28.083136649118
9	16486	8.7	28.101837952987
9	17000	8.8	28.120522046087
9	17514	8.9	28.13920067327
9	18028	9	28.15790096977
9	18542	9.1	28.176575844798
9	19173	9.2	28.195336635017
9	19804	9.3	28.214114713875
9	20435	9.4	28.232799383671
9	21066	9.5	28.251536458414
9	21697	9.6	28.270285990698
9	22328	9.7	28.289018928845
9	22959	9.8	28.307689200606
9	23590	9.9	28.326381481882
9	24221	10	28.345128281485
9	24852	10.1	28.363835040638
9	25483	10.2	28.382570678723
9	26114	10.3	28.40126764488
9	26745	10.4	28.419992805408
9	27376	10.5	28.438737082408
9	28007	10.6	28.457414450854
9	28638	10.7	28.476080266987
9	29269	10.8	28.49481606911
9	29900	10.9	28.513505479991
9	30531	11	28.532281236953
9	31162	11.1	28.551026016655
9	31793	11.2	28.569686849182
9	32424	11.3	28.588369593792
9	33055	11.4	28.607091705788
9	33686	11.5	28.625843105536
9	34317	11.6	28.644541475138
9	34948	11.7	28.663273607632
9	35579	11.8	28.681947571413
9	36210	11.9	28.700619632162
9	36841	12	28.719390306124
9	37472	12.1	28.738127098766
9	38103	12.2	28.75679420324
9	38734	12.3	28.775557251764
9	39365	12.4	28.794234275146
9	39996	12.5	28.813007198814
9	40627	12.6	28.831669411479
9	41258	12.7	28.850400568347
9	41889	12.8	28.869171609729
9	42520	12.9	28.887838669623
9	43151	13	28.906559552612
9	43782	13.1	28.92528617356
9	44413	13.2	28.944010201702
9	45044	13.3	28.962682606158
9	45675	13.4	28.981450827541
9	46306	13.5	29.000177429283
9	46937	13.6	29.018837239806
9	47568	13.7	29.037527028527
9	48199	13.8	29.056285965992
9	48830	13.9	29.075059720583
9	49461	14	29.093808159373
9	50092	14.1	29.112495202262
9	50723	14.2	29.131179484589
9	51354	14.3	29.149877672327
9	51985	14.4	29.168646313786
9	52616	14.5	29.187360401292
9	53247	14.6	29.206028312541
9	53878	14.7	29.224698575711
9	54509	14.8	29.243465165342
9	55140	14.9	29.262243035276
9	55771	15	29.280997175003
9	56402	15.1	29.299738991923
9	57033	15.2	29.318472602905
9	57664	15.3	29.337206370304
9	58295	15.4	29.355890602952
9	58926	15.5	29.374616317144
9	59557	15.6	29.3933487137
9	60188	15.7	29.412013331789
9	60819	15.8	29.430781493488
9	61450	15.9	29.449482012757
9	62081	16	29.468244001675
9	62712	16.1	29.48691497132
9	63343	16.2	29.505609032537
9	63974	16.3	29.524274267858
9	64605	16.4	29.542976439895
9	65236	16.5	29.561638846756
9	65867	16.6	29.580373341521
9	66498	16.7	29.599122710398
9	67129	16.8	29.617835223319
9	67760	16.9	29.636570353543
9	68391	17	29.655293140252
9	69022	17.1	29.673958485444
9	69653	17.2	29.692735093084
9	70284	17.3	29.711469063717
9	70915	17.4	29.730185377881
9	71546	17.5	29.748953924868
9	72177	17.6	29.767687749161
9	72808	17.7	29.786387599278
9	73439	17.8	29.805105466729
9	74070	17.9	29.823779184002
9	74701	18	29.842467358467
9	75332	18.1	29.861224064865
9	75963	18.2	29.879970676989
9	76594	18.3	29.898691084953
9	77225	18.4	29.917396045097
9	77856	18.5	29.936065258985
9	78487	18.6	29.954740057872
9	79118	18.7	29.973473215588
9	79749	18.8	29.992134093936
9	80380	18.9	30.010878981464
9	81011	19	30.029614248593
9	81642	19.1	30.048353196376
9	82273	19.2	30.06708892822
9	82904	19.3	30.085822356229
9	83535	19.4	30.104487447437
9	84166	19.5	30.123229303453
9	84797	19.6	30.141968245428
9	85428	19.7	30.160686653724
9	85942	19.8	30.179427085724
9	86456	19.9	30.198152482909
9	86970	20	30.216877733127
9	87484	20.1	30.235636063373
9	87998	20.2	30.254411232936
9	88512	20.3	30.273141299793
9	89026	20.4	30.291902713698
9	89540	20.5	30.310669304728
9	90054	20.6	30.329378368793
20	540	2.3	4.6927848915684
20	604	2.4	1.8639644710015
20	668	2.5	5.6407624984012
20	732	2.6	0.973
20	796	2.7	7.1275015147466
20	860	2.8	0.973
20	924	2.9	2.7991981227468
20	988	3	2.5883438525226
20	1052	3.1	7.8110226678943
20	1161	3.2	0.973
20	1270	3.3	4.3846749249534
20	1379	3.4	0.973
20	1488	3.5	7.9413332895956
20	1597	3.6	0.973
20	1706	3.7	2.6327356003997
20	1815	3.8	3.5553470637382
20	1924	3.9	5.3634447479648
20	2033	4	0.973
20	2142	4.1	5.8988798311968
20	2308	4.2	0.60623867012654
20	2474	4.3	1.8314174092688
20	2640	4.4	4.4254479724864
20	2806	4.5	0.973
20	2972	4.6	2.8098623743896
20	3138	4.7	8.4524751045496
20	3304	4.8	2.0644808328357
20	3470	4.9	1.5145319768675
20	3636	5	4.0177983184546
20	3802	5.1	0.8327968330351
20	4037	5.2	5.4036342634957
20	4272	5.3	1.1425459395761
20	4507	5.4	2.6991509582281
20	4742	5.5	3.147605295183
20	4977	5.6	0.973
20	5212	5.7	1.1018208523029
20	5447	5.8	8.612403145826
20	5682	5.9	0.973
20	5917	6	3.0565920690934
20	6152	6.1	2.9206854417018
20	6468	6.2	0.78071162194596
20	6784	6.3	2.5944933032878
20	7100	6.4	3.8432060232233
20	7416	6.5	6.0300321406484
20	7732	6.6	3.9525937601237
20	8048	6.7	0.973
20	8364	6.8	1.6569340419767
20	8680	6.9	3.5187742395533
20	8996	7	6.0158830018866
20	9312	7.1	0.973
20	9721	7.2	6.1488974317515
20	10130	7.3	4.1956781518846
20	10539	7.4	0.973
20	10948	7.5	5.0822200115576
20	11357	7.6	1.8919801078906
20	11766	7.7	2.7004945685773
20	12175	7.8	6.8184843995534
20	12584	7.9	0.973
20	12993	8	6.7711593238155
20	13402	8.1	2.622766230941
20	13916	8.2	0.973
20	14430	8.3	5.4441456871083
20	14944	8.4	0.973
20	15458	8.5	1.3170631469347
20	15972	8.6	5.9407775735859
20	16486	8.7	4.550771987036
20	17000	8.8	0.973
20	17514	8.9	0.973
20	18028	9	3.947497770044
20	18542	9.1	6.1567547579134
20	19173	9.2	0.973
20	19804	9.3	5.0855035630947
20	20435	9.4	0.973
20	21066	9.5	6.579239728614
20	21697	9.6	0.973
20	22328	9.7	6.3983084137836
20	22959	9.8	0.973
20	23590	9.9	3.2170057109107
20	24221	10	3.441540591813
20	24852	10.1	4.9389645691193
20	25483	10.2	1.6135738509655
20	26114	10.3	2.0907810455512
20	26745	10.4	0.973
20	27376	10.5	2.5030211707109
20	28007	10.6	5.8430570691042
20	28638	10.7	4.0989708111245
20	29269	10.8	0.973
20	29900	10.9	7.5839121919698
20	30531	11	1.6905993668302
20	31162	11.1	0.973
20	31793	11.2	3.5880968077766
20	32424	11.3	5.3162172520692
20	33055	11.4	3.9261959230164
20	33686	11.5	0.973
20	34317	11.6	3.4717345019087
20	34948	11.7	4.9134239535718
20	35579	11.8	2.6889744433292
20	36210	11.9	3.10249776013
20	36841	12	0.973
20	37472	12.1	4.2128492501656
20	38103	12.2	3.2778596165957
20	38734	12.3	3.666982758677
20	39365	12.4	2.4288659324183
20	39996	12.5	4.3140948809842
20	40627	12.6	0.973
20	41258	12.7	6.7759037039282
20	41889	12.8	0.973
20	42520	12.9	7.3283456077881
20	43151	13	3.0588578681382
20	43782	13.1	2.3252221191922
20	44413	13.2	2.9781147121695
20	45044	13.3	3.3381238092077
20	45675	13.4	1.6851729011758
20	46306	13.5	2.9877760628128
20	46937	13.6	0.90660678438916
20	47568	13.7	6.4525265211891
20	48199	13.8	0.973
20	48830	13.9	7.5480709238317
20	49461	14	1.157322420139
20	50092	14.1	1.7565395226442
20	50723	14.2	3.4655583605881
20	51354	14.3	0.973
20	51985	14.4	1.8141623071629
20	52616	14.5	6.2085618781257
20	53247	14.6	0.973
20	53878	14.7	3.1473586810673
20	54509	14.8	6.237539412986
20	55140	14.9	2.8588978116885
20	55771	15	0.973
20	56402	15.1	6.3175819753457
20	57033	15.2	0.973
20	57664	15.3	7.0393756934295
20	58295	15.4	0.973
20	58926	15.5	0.70207438511592
20	59557	15.6	3.7110325658417
20	60188	15.7	6.5320752966135
20	60819	15.8	1.9242270132896
20	61450	15.9	0.973
20	62081	16	3.1140466840792
20	62712	16.1	5.0500284213185
20	63343	16.2	0.56430976288269
20	63974	16.3	4.857087144477
20	64605	16.4	3.0134286159473
20	65236	16.5	5.2795902000408
20	65867	16.6	0.973
20	66498	16.7	6.7302932007672
20	67129	16.8	0.973
20	67760	16.9	6.9590074035311
20	68391	17	0.973
20	69022	17.1	1.6939335581494
20	69653	17.2	3.5474203676281
20	70284	17.3	4.7103021738539
20	70915	17.4	4.8735960142468
20	71546	17.5	0.973
20	72177	17.6	2.1211248574745
20	72808	17.7	7.1018922402522
20	73439	17.8	0.973
20	74070	17.9	4.5701869614512
20	74701	18	3.8686866368311
20	75332	18.1	0.973
20	75963	18.2	3.2563713304383
20	76594	18.3	3.5360361953853
20	77225	18.4	3.8472893994269
20	77856	18.5	3.1289673581653
20	78487	18.6	2.0802496528368
20	79118	18.7	2.7635533721308
20	79749	18.8	6.0705025923287
20	80380	18.9	0.973
20	81011	19	3.3529053988699
20	81642	19.1	2.0332900451309
20	82273	19.2	2.5451143843231
20	82904	19.3	1.7275807377034
20	83535	19.4	3.6769138686532
20	84166	19.5	4.0796071219652
20	84797	19.6	0.973
20	85428	19.7	5.6539194421517
20	85942	19.8	4.6577331851179
20	86456	19.9	1.7615383963148
20	86970	20	0.66969652280184
20	87484	20.1	2.6748649231986
20	87998	20.2	2.1723932392432
20	88512	20.3	3.6289424824281
20	89026	20.4	1.0164504451419
20	89540	20.5	7.8029691563823
20	90054	20.6	0.973
20	90568	20.7	0.59890692537446
20	90977	20.8	2.6247458487246
20	91386	20.9	7.1955081566833
20	91795	21	2.7294255321773
20	92204	21.1	1.9968456448982
20	92613	21.2	2.8800012581714
20	93022	21.3	4.5849377156104
20	93431	21.4	0.973
20	93840	21.5	0.56520963673285
20	94249	21.6	3.3576789400536
19	540	2.3	0.38748484291137
19	604	2.4	-0.19764327686278
19	668	2.5	0.58134077929424
19	732	2.6	-0.70442887921818
19	796	2.7	0.88710694457404
19	860	2.8	-1.0580039657885
19	924	2.9	-0.0028771891724588
19	988	3	-0.046490850183183
19	1052	3.1	1.0288633791497
19	1161	3.2	-0.53504007228184
19	1270	3.3	0.32235142248684
19	1379	3.4	-0.58240712671541
19	1488	3.5	1.0535624067532
19	1597	3.6	-0.85972129139119
19	1706	3.7	-0.038487542490486
19	1815	3.8	0.15202659510543
19	1924	3.9	0.52321785248349
19	2033	4	-0.56089339365716
19	2142	4.1	0.63330034948887
19	2308	4.2	-0.45859852922149
19	2474	4.3	-0.20468432751951
19	2640	4.4	0.33083883933724
19	2806	4.5	-0.71423037997448
19	2972	4.6	-0.00080526729579589
19	3138	4.7	1.1593309300253
19	3304	4.8	-0.15797870086974
19	3470	4.9	-0.27098065144379
19	3636	5	0.24538191861936
19	3802	5.1	-0.41170039183925
19	4037	5.2	0.53080303219613
19	4272	5.3	-0.34790354534053
19	4507	5.4	-0.02606651391833
19	4742	5.5	0.066400692169566
19	4977	5.6	-0.48867195211351
19	5212	5.7	-0.3550943568349
19	5447	5.8	1.1925356738968
19	5682	5.9	-0.74630922870711
19	5917	6	0.048827984975652
19	6152	6.1	0.020622261031527
19	6468	6.2	-0.42184697727205
19	6784	6.3	-0.045463938615278
19	7100	6.4	0.21269396303687
19	7416	6.5	0.66156544408294
19	7732	6.6	0.23137625758537
19	8048	6.7	-0.70883063736837
19	8364	6.8	-0.24032027726062
19	8680	6.9	0.14509339411742
19	8996	7	0.658080282202
19	9312	7.1	-0.88885804670863
19	9721	7.2	0.68690443099474
19	10130	7.3	0.28184600190727
19	10539	7.4	-1.0428008206887
19	10948	7.5	0.46807242960202
19	11357	7.6	-0.19186340258457
19	11766	7.7	-0.024261876195659
19	12175	7.8	0.82298177762421
19	12584	7.9	-0.77095772179309
19	12993	8	0.81290659073275
19	13402	8.1	-0.042915255133984
19	13916	8.2	-0.58629506223369
19	14430	8.3	0.53963511239271
19	14944	8.4	-0.59643045789564
19	15458	8.5	-0.31071336551104
19	15972	8.6	0.64386609140787
19	16486	8.7	0.35475549465044
19	17000	8.8	-0.56424152904654
19	17514	8.9	-0.54581154992341
19	18028	9	0.23418911427726
19	18542	9.1	0.68738852229437
19	19173	9.2	-0.67447442675476
19	19804	9.3	0.46731405982282
19	20435	9.4	-0.54471025085075
19	21066	9.5	0.77448056943247
19	21697	9.6	-0.48404548414982
19	22328	9.7	0.73536626205314
19	22959	9.8	-0.81185775576159
19	23590	9.9	0.081946377013793
19	24221	10	0.12791964074133
19	24852	10.1	0.4352965794271
19	25483	10.2	-0.250599759724
19	26114	10.3	-0.15158747809473
19	26745	10.4	-0.54115805658512
19	27376	10.5	-0.064521548291658
19	28007	10.6	0.62437304863703
19	28638	10.7	0.26246701949276
19	29269	10.8	-0.81648493865504
19	29900	10.9	0.98089941071812
19	30531	11	-0.23480711900628
19	31162	11.1	-0.78613329154905
19	31793	11.2	0.15980359786191
19	32424	11.3	0.51494348167907
19	33055	11.4	0.22658342225476
19	33686	11.5	-0.72823682283051
19	34317	11.6	0.13509615091607
19	34948	11.7	0.43132199544925
19	35579	11.8	-0.028293589781967
19	36210	11.9	0.056972718308685
19	36841	12	-0.66270256107671
19	37472	12.1	0.28817941132001
19	38103	12.2	0.094265045318735
19	38734	12.3	0.17405565420631
19	39365	12.4	-0.081675964966408
19	39996	12.5	0.30675108910074
19	40627	12.6	-0.60432571221611
19	41258	12.7	0.81359544857406
19	41889	12.8	-1.1638631050475
19	42520	12.9	0.92941891248341
19	43151	13	0.047455138806249
19	43782	13.1	-0.10374063495547
19	44413	13.2	0.031034448323766
19	45044	13.3	0.10499584854117
19	45675	13.4	-0.23575724372641
19	46306	13.5	0.033368194312793
19	46937	13.6	-0.39620103638153
19	47568	13.7	0.74692947599104
19	48199	13.8	-1.0249757620506
19	48830	13.9	0.97336087729783
19	49461	14	-0.34484156952239
19	50092	14.1	-0.22049279415516
19	50723	14.2	0.13263654368931
19	51354	14.3	-0.47442034767009
19	51985	14.4	-0.2073255538475
19	52616	14.5	0.69976190512534
19	53247	14.6	-0.51611791183241
19	53878	14.7	0.068397979857409
19	54509	14.8	0.70400692324622
19	55140	14.9	0.0062435086583434
19	55771	15	-0.7111383995041
19	56402	15.1	0.72042989472394
19	57033	15.2	-0.71052314098925
19	57664	15.3	0.86827649429903
19	58295	15.4	-0.63515851492991
19	58926	15.5	-0.43814940650485
19	59557	15.6	0.18526025700851
19	60188	15.7	0.76447959297802
19	60819	15.8	-0.18643484849019
19	61450	15.9	-0.66070714485829
19	62081	16	0.061609141714847
19	62712	16.1	0.46030856345315
19	63343	16.2	-0.4668806580128
19	63974	16.3	0.42065809143242
19	64605	16.4	0.039165903092346
19	65236	16.5	0.50488098857461
19	65867	16.6	-1.1128980203299
19	66498	16.7	0.80638454610014
19	67129	16.8	-0.64379210253247
19	67760	16.9	0.85206473341678
19	68391	17	-0.64627786583731
19	69022	17.1	-0.23270366333893
19	69653	17.2	0.15090178265236
19	70284	17.3	0.38973205636722
19	70915	17.4	0.42121254338419
19	71546	17.5	-0.98088300728705
19	72177	17.6	-0.14372898968869
19	72808	17.7	0.88277801088989
19	73439	17.8	-0.49943217551334
19	74070	17.9	0.36055850759148
19	74701	18	0.21462283025031
19	75332	18.1	-0.78393933793997
19	75963	18.2	0.090795681811855
19	76594	18.3	0.14813991934062
19	77225	18.4	0.21165704820305
19	77856	18.5	0.062868482945504
19	78487	18.6	-0.15356619546658
19	79118	18.7	-0.012144217570302
19	79749	18.8	0.66770451457707
19	80380	18.9	-0.70787035652902
19	81011	19	0.1095390105387
19	81642	19.1	-0.16301919277758
19	82273	19.2	-0.05688980855048
19	82904	19.3	-0.22569257556459
19	83535	19.4	0.17768243514002
19	84166	19.5	0.25989510715007
19	84797	19.6	-0.49919416897467
19	85428	19.7	0.58502262979747
19	85942	19.8	0.37708360627295
19	86456	19.9	-0.22015601017049
19	86970	20	-0.44525829346384
19	87484	20.1	-0.029956409893934
19	87998	20.2	-0.13366595145779
19	88512	20.3	0.16749261340593
19	89026	20.4	-0.37292575570756
19	89540	20.5	1.0262766300468
19	90054	20.6	-0.5289352194406
19	90568	20.7	-0.45958333015442
19	90977	20.8	-0.039279077504766
19	91386	20.9	0.90188286767805
19	91795	21	-0.020391768217074
19	92204	21.1	-0.17128029561135
19	92613	21.2	0.011246270313841
19	93022	21.3	0.36181832100265
19	93431	21.4	-0.5944673945196
19	93840	21.5	-0.46655604084954
19	94249	21.6	0.11224988047033
18	476	2.2	20.005872600588
18	540	2.3	20.04462108488
18	604	2.4	20.024856757193
18	668	2.5	20.082990835123
18	732	2.6	20.012547947201
18	796	2.7	20.101258641658
18	860	2.8	19.99545824508
18	924	2.9	19.995170526162
18	988	3	19.990521441144
18	1052	3.1	20.093407779059
18	1161	3.2	20.039903771831
18	1270	3.3	20.072138914079
18	1379	3.4	20.013898201408
18	1488	3.5	20.119254442083
18	1597	3.6	20.033282312944
18	1706	3.7	20.029433558695
18	1815	3.8	20.044636218206
18	1924	3.9	20.096958003454
18	2033	4	20.040868664088
18	2142	4.1	20.104198699037
18	2308	4.2	20.058338846115
18	2474	4.3	20.037870413363
18	2640	4.4	20.070954297297
18	2806	4.5	19.999531259299
18	2972	4.6	19.99945073257
18	3138	4.7	20.115383825572
18	3304	4.8	20.099585955485
18	3470	4.9	20.072487890341
18	3636	5	20.097026082203
18	3802	5.1	20.055856043019
18	4037	5.2	20.108936346238
18	4272	5.3	20.074145991704
18	4507	5.4	20.071539340313
18	4742	5.5	20.07817940953
18	4977	5.6	20.029312214318
18	5212	5.7	19.993802778635
18	5447	5.8	20.113056346024
18	5682	5.9	20.038425423154
18	5917	6	20.043308221651
18	6152	6.1	20.045370447754
18	6468	6.2	20.003185750027
18	6784	6.3	19.998639356166
18	7100	6.4	20.019908752469
18	7416	6.5	20.086065296878
18	7732	6.6	20.109202922636
18	8048	6.7	20.038319858899
18	8364	6.8	20.014287831173
18	8680	6.9	20.028797170585
18	8996	7	20.094605198805
18	9312	7.1	20.005719394134
18	9721	7.2	20.074409837234
18	10130	7.3	20.102594437425
18	10539	7.4	19.998314355356
18	10948	7.5	20.045121598316
18	11357	7.6	20.025935258057
18	11766	7.7	20.023509070438
18	12175	7.8	20.1058072482
18	12584	7.9	20.028711476021
18	12993	8	20.110002135094
18	13402	8.1	20.105710609581
18	13916	8.2	20.047081103357
18	14430	8.3	20.101044614597
18	14944	8.4	20.041401568807
18	15458	8.5	20.010330232256
18	15972	8.6	20.074716841397
18	16486	8.7	20.110192390862
18	17000	8.8	20.053768237957
18	17514	8.9	19.999187082965
18	18028	9	20.022605994393
18	18542	9.1	20.091344846622
18	19173	9.2	20.023897403947
18	19804	9.3	20.070628809929
18	20435	9.4	20.016157784844
18	21066	9.5	20.093605841787
18	21697	9.6	20.045201293372
18	22328	9.7	20.118737919577
18	22959	9.8	20.037552144001
18	23590	9.9	20.045746781703
18	24221	10	20.058538745777
18	24852	10.1	20.102068403719
18	25483	10.2	20.077008427747
18	26114	10.3	20.061849679938
18	26745	10.4	20.007733874279
18	27376	10.5	20.00128171945
18	28007	10.6	20.063719024314
18	28638	10.7	20.089965726263
18	29269	10.8	20.008317232397
18	29900	10.9	20.106407173469
18	30531	11	20.082926461569
18	31162	11.1	20.004313132414
18	31793	11.2	20.0202934922
18	32424	11.3	20.071787840368
18	33055	11.4	20.094446182593
18	33686	11.5	20.02162250031
18	34317	11.6	20.035132115402
18	34948	11.7	20.078264314947
18	35579	11.8	20.075434955969
18	36210	11.9	20.081132227799
18	36841	12	20.014861971692
18	37472	12.1	20.043679912824
18	38103	12.2	20.053106417356
18	38734	12.3	20.070511982776
18	39365	12.4	20.06234438628
18	39996	12.5	20.09301949519
18	40627	12.6	20.032586923968
18	41258	12.7	20.113946468825
18	41889	12.8	19.997560158321
18	42520	12.9	20.090502049569
18	43151	13	20.09524756345
18	43782	13.1	20.084873499954
18	44413	13.2	20.087976944786
18	45044	13.3	20.098476529641
18	45675	13.4	20.074900805268
18	46306	13.5	20.078237624699
18	46937	13.6	20.038617521061
18	47568	13.7	20.11331046866
18	48199	13.8	20.010812892455
18	48830	13.9	20.108148980185
18	49461	14	20.073664823233
18	50092	14.1	20.051615543817
18	50723	14.2	20.064879198186
18	51354	14.3	20.017437163419
18	51985	14.4	19.996704608034
18	52616	14.5	20.066680798547
18	53247	14.6	20.015069007364
18	53878	14.7	20.021908805349
18	54509	14.8	20.092309497674
18	55140	14.9	20.09293384854
18	55771	15	20.021820008589
18	56402	15.1	20.093862998062
18	57033	15.2	20.022810683963
18	57664	15.3	20.109638333393
18	58295	15.4	20.0461224819
18	58926	15.5	20.002307541249
18	59557	15.6	20.02083356695
18	60188	15.7	20.097281526248
18	60819	15.8	20.078638041399
18	61450	15.9	20.012567326913
18	62081	16	20.018728241085
18	62712	16.1	20.06475909743
18	63343	16.2	20.018071031629
18	63974	16.3	20.060136840772
18	64605	16.4	20.064053431081
18	65236	16.5	20.114541529939
18	65867	16.6	20.003251727906
18	66498	16.7	20.083890182516
18	67129	16.8	20.019510972262
18	67760	16.9	20.104717445604
18	68391	17	20.04008965902
18	69022	17.1	20.016819292686
18	69653	17.2	20.031909470952
18	70284	17.3	20.070882676588
18	70915	17.4	20.113003930927
18	71546	17.5	20.014915630198
18	72177	17.6	20.000542731229
18	72808	17.7	20.088820532318
18	73439	17.8	20.038877314767
18	74070	17.9	20.074933165526
18	74701	18	20.096395448551
18	75332	18.1	20.018001514757
18	75963	18.2	20.027081082938
18	76594	18.3	20.041895074872
18	77225	18.4	20.063060779693
18	77856	18.5	20.069347627987
18	78487	18.6	20.05399100844
18	79118	18.7	20.052776586683
18	79749	18.8	20.119547038141
18	80380	18.9	20.048760002488
18	81011	19	20.059713903542
18	81642	19.1	20.043411984264
18	82273	19.2	20.037723003409
18	82904	19.3	20.015153745853
18	83535	19.4	20.032921989367
18	84166	19.5	20.058911500082
18	84797	19.6	20.008992083184
18	85428	19.7	20.067494346164
18	85942	19.8	20.105202706791
18	86456	19.9	20.083187105774
18	86970	20	20.038661276428
18	87484	20.1	20.035665635439
18	87998	20.2	20.022299040293
18	88512	20.3	20.039048301633
18	89026	20.4	20.001755726063
18	89540	20.5	20.104383389067
18	90054	20.6	20.051489867123
18	90568	20.7	20.005531534108
18	90977	20.8	20.001603626357
18	91386	20.9	20.091791913125
18	91795	21	20.089752736303
18	92204	21.1	20.072624706742
18	92613	21.2	20.073749333774
18	93022	21.3	20.109931165874
18	93431	21.4	20.050484426422
18	93840	21.5	20.003828822337
18	94249	21.6	20.015053810384
17	412	2.1	416.30025728988
17	476	2.2	416.30025728988
17	540	2.3	414.29977095744
17	604	2.4	412.29540997205
17	668	2.5	410.29302531973
17	732	2.6	408.28482755289
17	796	2.7	406.28367371946
17	860	2.8	404.27364926413
17	924	2.9	402.2742043147
17	988	3	400.27478813571
17	1052	3.1	398.27583684177
17	1161	3.2	396.26659743309
17	1270	3.3	394.26270815521
17	1379	3.4	392.25559552573
17	1488	3.5	390.25430667369
17	1597	3.6	388.2424827291
17	1706	3.7	386.23925556371
17	1815	3.8	384.23641325432
17	1924	3.9	382.23205075568
17	2033	4	380.22245634247
17	2142	4.1	378.21847058023
17	2308	4.2	376.20815213399
17	2474	4.3	374.20241944168
17	2640	4.4	372.19873348939
17	2806	4.5	370.19173931561
17	2972	4.6	368.19188708531
17	3138	4.7	366.19204290727
17	3304	4.8	364.18060600481
17	3470	4.9	362.17074880965
17	3636	5	360.1636012843
17	3802	5.1	358.15400006356
17	4037	5.2	356.14851563904
17	4272	5.3	354.13772345198
17	4507	5.4	352.13041012486
17	4742	5.5	350.12335744973
17	4977	5.6	348.11564080118
17	5212	5.7	346.11281062562
17	5447	5.8	344.11353121448
17	5682	5.9	342.10232704823
17	5917	6	340.09858559776
17	6152	6.1	338.09435589207
17	6468	6.2	336.08991997418
17	6784	6.3	334.08970231324
17	7100	6.4	332.08993926875
17	7416	6.5	330.08804939193
17	7732	6.6	328.07954419443
17	8048	6.7	326.06872535107
17	8364	6.8	324.06499445649
17	8680	6.9	322.06366664345
17	8996	7	320.06088796966
17	9312	7.1	318.05152882505
17	9721	7.2	316.05105781248
17	10130	7.3	314.04371810214
17	10539	7.4	312.03356007397
17	10948	7.5	310.03382952792
17	11357	7.6	308.02941849371
17	11766	7.7	306.02692599674
17	12175	7.8	304.02467610629
17	12584	7.9	302.01419681325
17	12993	8	300.01142670849
17	13402	8.1	298.00052794792
17	13916	8.2	295.99005831825
17	14430	8.3	293.98545134343
17	14944	8.4	291.97544828972
17	15458	8.5	289.9714092397
17	15972	8.6	287.97047716658
17	16486	8.7	285.96310675737
17	17000	8.8	283.95218897219
17	17514	8.9	281.94691331764
17	18028	9	279.94709550323
17	18542	9.1	277.94493591583
17	19173	9.2	275.93590278999
17	19804	9.3	273.93361406814
17	20435	9.4	271.92665244146
17	21066	9.5	269.92513764248
17	21697	9.6	267.91587842853
17	22328	9.7	265.91145942522
17	22959	9.8	263.89968713027
17	23590	9.9	261.89603300331
17	24221	10	259.89155945392
17	24852	10.1	257.88580677266
17	25483	10.2	255.8757013452
17	26114	10.3	253.86810178892
17	26745	10.4	251.86201803094
17	27376	10.5	249.86134558052
17	28007	10.6	247.86131831304
17	28638	10.7	245.85504763005
17	29269	10.8	243.84615240929
17	29900	10.9	241.845421626
17	30531	11	239.83488234346
17	31162	11.1	237.82669101365
17	31793	11.2	235.82636062016
17	32424	11.3	233.82443227131
17	33055	11.4	231.81735474743
17	33686	11.5	229.80801150363
17	34317	11.6	227.80595026068
17	34948	11.7	225.80253812437
17	35579	11.8	223.7948129857
17	36210	11.9	221.78737076866
17	36841	12	219.77935885317
17	37472	12.1	217.77797362897
17	38103	12.2	215.77370675604
17	38734	12.3	213.76849728022
17	39365	12.4	211.76154733566
17	39996	12.5	209.75541410954
17	40627	12.6	207.74621352729
17	41258	12.7	205.74305589728
17	41889	12.8	203.73176272324
17	42520	12.9	201.73210759309
17	43151	13	199.7231587427
17	43782	13.1	197.71373536486
17	44413	13.2	195.70534934104
17	45044	13.3	193.69665298839
17	45675	13.4	191.68690673022
[...]
68	92204	21.1	-0.24285098065157
68	92613	21.2	-0.27694968790748
68	93022	21.3	0.30687697546089
68	93431	21.4	-0.90896045754196
68	93840	21.5	0.41017500774469
68	94249	21.6	-0.17847279696724
68	94658	21.7	-0.25479148924351
68	94974	21.8	1.140629702853
68	95290	21.9	-0.71671740878376
68	95606	22	-0.033960184920581
68	95922	22.1	0.16771648388822
68	96238	22.2	-0.3298971018754
68	96554	22.3	0.44163575791757
68	96870	22.4	-0.38073389362545
68	97186	22.5	-0.057886381912979
68	97502	22.6	0.63371701946014
68	97818	22.7	0.2468508592807
68	98053	22.8	-0.057935195392922
68	98288	22.9	-0.49654724106659
68	98523	23	-0.15153457480483
68	98758	23.1	0.26423454987818
68	98993	23.2	-0.45402530415451
68	99228	23.3	0.927845337824
68	99463	23.4	-0.8313444661675
68	99698	23.5	0.17255954560824
68	99933	23.6	0.01256998609751
68	100168	23.7	-0.14700206592682
68	100403	23.8	-0.39360027108341
68	100638	23.9	1.2394700965379
68	100873	24	-0.70979302576745
68	101039	24.1	0.26101872280705
68	101205	24.2	0.26964944039939
68	101371	24.3	-0.12892284581902
68	101537	24.4	0.061207698658095
68	101703	24.5	-0.46761310417207
68	101869	24.6	0.25441988920793
68	102035	24.7	0.33247575792487
68	102201	24.8	-0.13086066418328
68	102367	24.9	-0.45133439444474
68	102533	25	0.031101968628384
68	102699	25.1	0.018791595264318
68	102865	25.2	0.20843620451632
68	103031	25.3	-0.72564227245746
68	103197	25.4	1.1409083692822
68	103306	25.5	0.022956604207884
68	103415	25.6	-0.74799764100462
68	103524	25.7	0.56800284995695
68	103588	25.8	0.098428852926027
68	103652	25.9	-0.1116659157211
68	103716	26	-0.991261495417
68	103780	26.1	0.49669509502127
68	103844	26.2	-0.28952063228935
68	103908	26.3	0.55204846833369
68	103972	26.4	0.36296403228768
68	104036	26.5	-0.44396150680257
68	104100	26.6	0.079623300489047
68	104164	26.7	-0.37604473219254
68	104228	26.8	0.38638390281701
68	104292	26.9	0.27300460946282
68	104356	27	0.1328130932059
68	104387	27.1	-0.89588962318373
68	104418	27.2	-0.04130604537206
68	104449	27.3	0.94108576006256
68	104480	27.4	-1.2182087013032
68	104511	27.5	0.45702696102669
68	104542	27.6	0.62239017880056
68	104573	27.7	-0.80683331647887
68	104604	27.8	-0.078995550982661
68	104635	27.9	0.043942398251957
68	104666	28	0.28964599350005
68	104697	28.1	-0.018475121702082
68	104728	28.2	0.2064560627332
68	104759	28.3	-0.062695715413419
68	104790	28.4	0.35318242455833
68	104800	28.5	-0.4160184699111
68	104810	28.6	0.13294726694003
67	19173	9.2	20.099052781442
67	19804	9.3	19.995009227199
67	20435	9.4	20.08093553727
67	21066	9.5	20.103614039063
67	21697	9.6	20.01000273231
67	22328	9.7	20.085535353941
67	22959	9.8	20.095214676559
67	23590	9.9	20.064666278267
67	24221	10	20.034692534655
67	24852	10.1	20.096923823273
67	25483	10.2	20.09315465118
67	26114	10.3	20.062046980276
67	26745	10.4	20.113794011443
67	27376	10.5	20.072512760756
67	28007	10.6	20.119140946013
67	28638	10.7	20.073743194973
67	29269	10.8	20.115015549718
67	29900	10.9	20.051691567397
67	30531	11	20.058943356983
67	31162	11.1	20.102205726504
67	31793	11.2	20.035088670009
67	32424	11.3	20.107339788191
67	33055	11.4	20.01513814419
67	33686	11.5	20.069521890334
67	34317	11.6	20.072128487395
67	34948	11.7	20.020675494373
67	35579	11.8	20.038855494123
67	36210	11.9	20.061609961926
67	36841	12	20.072870099607
67	37472	12.1	20.003201823416
67	38103	12.2	20.043525086276
67	38734	12.3	20.075264537898
67	39365	12.4	20.043816996824
67	39996	12.5	20.034700540386
67	40627	12.6	20.054862899079
67	41258	12.7	20.096899833505
67	41889	12.8	20.10530508307
67	42520	12.9	20.013778971704
67	43151	13	19.999474217105
67	43782	13.1	20.081570557116
67	44413	13.2	20.083790944633
67	45044	13.3	20.031543446339
67	45675	13.4	20.041141624548
67	46306	13.5	20.061667790271
67	46937	13.6	20.053480306589
67	47568	13.7	20.019371270323
67	48199	13.8	20.095378298499
67	48830	13.9	20.055702155081
67	49461	14	20.088812911718
67	50092	14.1	20.03697332938
67	50723	14.2	20.103923988331
67	51354	14.3	20.052820007831
67	51985	14.4	19.997303021629
67	52616	14.5	20.092910169321
67	53247	14.6	20.047229200879
67	53878	14.7	20.029108372312
67	54509	14.8	19.992597237928
67	55140	14.9	19.998346395348
67	55771	15	20.115869264039
67	56402	15.1	20.015033966482
67	57033	15.2	20.090890059574
67	57664	15.3	20.049141622891
67	58295	15.4	20.026836488936
67	58926	15.5	19.996428346124
67	59557	15.6	20.039800640184
67	60188	15.7	20.091874524986
67	60819	15.8	20.029057371456
67	61450	15.9	20.056714111844
67	62081	16	20.01971047045
67	62712	16.1	20.021866300867
67	63343	16.2	19.995149962639
67	63974	16.3	20.029114282439
67	64605	16.4	20.098477678765
67	65236	16.5	20.097311267448
67	65867	16.6	20.065815219933
67	66498	16.7	19.996684895314
67	67129	16.8	20.039415820001
67	67760	16.9	20.099673264453
67	68391	17	20.002368068197
67	69022	17.1	19.993510603483
67	69653	17.2	20.084845647325
67	70284	17.3	20.066741284814
67	70915	17.4	20.102354459199
67	71546	17.5	20.087386941817
67	72177	17.6	20.05853270232
67	72808	17.7	20.049299704125
67	73439	17.8	20.075049762249
67	74070	17.9	20.052825167463
67	74701	18	20.033959788601
67	75332	18.1	19.997255513154
67	75963	18.2	20.01911531148
67	76594	18.3	20.051882648785
67	77225	18.4	20.088244200125
67	77856	18.5	20.052709762391
67	78487	18.6	20.117613111059
67	79118	18.7	20.11458949985
67	79749	18.8	20.108229986844
67	80380	18.9	20.091179425251
67	81011	19	20.041554777047
67	81642	19.1	20.060818071323
67	82273	19.2	20.004486446101
67	82904	19.3	20.011066385759
67	83535	19.4	20.105000621721
67	84166	19.5	20.082941395822
67	84797	19.6	20.105889919235
67	85428	19.7	20.069955435917
67	85942	19.8	20.062605058786
67	86456	19.9	20.066566263649
67	86970	20	19.99930152382
67	87484	20.1	20.007374917271
67	87998	20.2	20.030944500088
67	88512	20.3	20.008644377755
67	89026	20.4	20.075915652108
67	89540	20.5	20.10102449123
67	90054	20.6	20.06728858429
67	90568	20.7	20.091707914446
67	90977	20.8	20.027333366431
67	91386	20.9	20.062100373483
67	91795	21	20.109588075373
67	92204	21.1	20.085302977308
67	92613	21.2	20.057608008517
67	93022	21.3	20.088295706064
67	93431	21.4	19.997399660309
67	93840	21.5	20.038417161084
67	94249	21.6	20.020569881387
67	94658	21.7	19.995090732463
67	94974	21.8	20.109153702748
67	95290	21.9	20.03748196187
67	95606	22	20.034085943378
67	95922	22.1	20.050857591766
67	96238	22.2	20.017867881579
67	96554	22.3	20.062031457371
67	96870	22.4	20.023958068008
67	97186	22.5	20.018169429817
67	97502	22.6	20.081541131763
67	97818	22.7	20.106226217691
67	98053	22.8	20.100432698152
67	98288	22.9	20.050777974045
67	98523	23	20.035624516564
67	98758	23.1	20.062047971552
67	98993	23.2	20.016645441137
67	99228	23.3	20.109429974919
67	99463	23.4	20.026295528302
67	99698	23.5	20.043551482863
67	99933	23.6	20.044808481473
67	100168	23.7	20.03010827488
67	100403	23.8	19.990748247772
67	100638	23.9	20.114695257426
67	100873	24	20.043715954849
67	101039	24.1	20.06981782713
67	101205	24.2	20.09678277117
67	101371	24.3	20.083890486588
67	101537	24.4	20.090011256454
67	101703	24.5	20.043249946036
67	101869	24.6	20.068691934957
67	102035	24.7	20.10193951075
67	102201	24.8	20.088853444331
67	102367	24.9	20.043720004887
67	102533	25	20.04683020175
67	102699	25.1	20.048709361276
67	102865	25.2	20.069552981728
67	103031	25.3	19.996988754482
67	103197	25.4	20.11107959141
67	103306	25.5	20.113375251831
67	103415	25.6	20.038575487731
67	103524	25.7	20.095375772726
67	103588	25.8	20.105218658019
67	103652	25.9	20.094052066447
67	103716	26	19.994925916905
67	103780	26.1	20.044595426407
67	103844	26.2	20.015643363178
67	103908	26.3	20.070848210012
67	103972	26.4	20.10714461324
67	104036	26.5	20.06274846256
67	104100	26.6	20.070710792609
67	104164	26.7	20.03310631939
67	104228	26.8	20.071744709671
67	104292	26.9	20.099045170618
67	104356	27	20.112326479938
67	104387	27.1	20.02273751762
67	104418	27.2	20.018606913083
67	104449	27.3	20.112715489089
67	104480	27.4	19.990894618959
67	104511	27.5	20.036597315061
67	104542	27.6	20.098836332941
67	104573	27.7	20.018153001294
67	104604	27.8	20.010253446195
67	104635	27.9	20.01464768602
67	104666	28	20.04361228537
67	104697	28.1	20.0417647732
67	104728	28.2	20.062410379474
67	104759	28.3	20.056140807932
67	104790	28.4	20.091459050388
67	104800	28.5	20.049857203397
67	104810	28.6	20.063151930091
66	18542	9.1	416.34012864494
66	19173	9.2	416.34012864494
66	19804	9.3	414.33027406565
66	20435	9.4	412.33082357933
66	21066	9.5	410.32278067876
66	21697	9.6	408.31246998521
66	22328	9.7	406.31152018621
66	22959	9.8	404.30301731557
66	23590	9.9	402.29354653708
66	24221	10	400.28713052137
66	24852	10.1	398.28371180441
66	25483	10.2	396.27407011556
66	26114	10.3	394.26480533442
66	26745	10.4	392.2586512419
66	27376	10.5	390.24732257679
66	28007	10.6	388.24012193262
66	28638	10.7	386.22825858754
66	29269	10.8	384.22093490305
66	29900	10.9	382.2094840872
66	30531	11	380.20436550985
66	31162	11.1	378.19852177182
66	31793	11.2	376.18835190598
66	32424	11.3	374.18489357648
66	33055	11.4	372.17421031742
66	33686	11.5	370.17274699018
66	34317	11.6	368.16584542551
66	34948	11.7	366.15868320771
66	35579	11.8	364.15666615942
66	36210	11.9	362.15283115701
66	36841	12	360.14672076523
66	37472	12.1	358.13948438807
66	38103	12.2	356.1392146628
66	38734	12.3	354.13491271296
66	39365	12.4	352.12743689802
66	39996	12.5	350.12310575786
66	40627	12.6	348.11968624035
66	41258	12.7	346.11425053782
66	41889	12.8	344.10461124789
66	42520	12.9	342.09413145421
66	43151	13	340.09280404079
66	43782	13.1	338.09290706675
66	44413	13.2	336.08480066579
66	45044	13.3	334.07647223168
66	45675	13.4	332.07336841561
66	46306	13.5	330.06930480593
66	46937	13.6	328.06318863146
66	47568	13.7	326.05789118469
66	48199	13.8	324.05600455552
66	48830	13.9	322.04651741525
66	49461	14	320.04099778925
66	50092	14.1	318.0321671711
66	50723	14.2	316.02852038042
66	51354	14.3	314.01817869273
66	51985	14.4	312.01294727417
66	52616	14.5	310.0132674142
66	53247	14.6	308.00402708063
66	53878	14.7	305.99935472867
66	54509	14.8	303.99649441386
66	55140	14.9	301.99728512039
66	55771	15	299.99750092568
66	56402	15.1	297.98596474055
66	57033	15.2	295.98451183082
66	57664	15.3	293.97547350312
66	58295	15.4	291.97060991379
66	58926	15.5	289.96797678158
66	59557	15.6	287.96838438696
66	60188	15.7	285.96445487233
66	60819	15.8	283.95531810058
66	61450	15.9	281.95246288572
66	62081	16	279.94684206659
66	62712	16.1	277.94492151826
66	63343	16.2	275.94278539233
66	63974	16.3	273.94332083283
66	64605	16.4	271.94045992702
66	65236	16.5	269.93066285654
66	65867	16.6	267.92098242426
66	66498	16.7	265.91445151727
66	67129	16.8	263.91483346838
66	67760	16.9	261.9109424348
66	68391	17	259.90102580877
66	69022	17.1	257.90083945692
66	69653	17.2	255.9015388292
66	70284	17.3	253.89310492748
66	70915	17.4	251.88648141635
66	71546	17.5	249.87629667761
66	72177	17.6	247.86760865285
66	72808	17.7	245.86180597926
66	73439	17.8	243.8569265822
66	74070	17.9	241.84947224428
66	74701	18	239.84424030978
66	75332	18.1	237.84089486558
66	75963	18.2	235.84121975633
66	76594	18.3	233.8393587224
66	77225	18.4	231.83422103739
66	77856	18.5	229.82544728896
66	78487	18.6	227.82022689468
66	79118	18.7	225.80851632924
66	79749	18.8	223.7971081173
66	80380	18.9	221.78633584062
66	81011	19	219.77726857708
66	81642	19.1	217.77316365319
66	82273	19.2	215.76713244847
66	82904	19.3	213.76673426417
66	83535	19.4	211.7656781025
66	84166	19.5	209.75522875419
66	84797	19.6	207.74698527282
66	85428	19.7	205.73644699699
66	85942	19.8	203.72950207885
66	86456	19.9	201.72329217989
66	86970	20	199.71668617043
66	87484	20.1	197.71680646528
66	87998	20.2	195.71611944116
66	88512	20.3	193.7130755182
66	89026	20.4	191.71226155122
66	89540	20.5	189.7047206265
66	90054	20.6	187.69466888121
66	90568	20.7	185.6879906415
66	90977	20.8	183.67887053038
66	91386	20.9	181.67618771168
66	91795	21	179.67002827998
66	92204	21.1	177.65912019787
66	92613	21.2	175.6506405643
66	93022	21.3	173.64493035776
66	93431	21.4	171.63615145887
66	93840	21.5	169.63646193528
66	94249	21.6	167.63267076507
66	94658	21.7	165.63066427782
66	94974	21.8	163.63120564118
66	95290	21.9	161.62034099524
66	95606	22	159.61664334259
66	95922	22.1	157.61328528323
66	96238	22.2	155.60825010134
66	96554	22.3	153.60651380725
66	96870	22.4	151.60036126698
66	97186	22.5	149.5980159696
66	97502	22.6	147.59624952145
66	97818	22.7	145.58814606295
66	98053	22.8	143.57757415813
66	98288	22.9	141.56758159065
66	98523	23	139.56255437033
66	98758	23.1	137.55904245753
66	98993	23.2	135.55288826588
66	99228	23.3	133.55127421275
66	99463	23.4	131.54038194028
66	99698	23.5	129.53780290278
66	99933	23.6	127.53349831335
66	100168	23.7	125.52906802722
66	100403	23.8	123.52610772468
66	100638	23.9	121.52708332556
66	100873	24	119.51566453812
66	101039	24.1	117.51134350191
66	101205	24.2	115.5044123443
66	101371	24.3	113.49478476031
66	101537	24.4	111.48644637226
66	101703	24.5	109.47749592266
66	101869	24.6	107.47322148615
66	102035	24.7	105.46640291492
66	102201	24.8	103.45625966998
66	102367	24.9	101.44742499867
66	102533	25	99.443103557457
66	102699	25.1	97.438471104405
66	102865	25.2	95.43365074014
66	103031	25.3	93.426746066407
66	103197	25.4	91.42709763236
66	103306	25.5	89.416040402407
66	103415	25.6	87.404753612204
66	103524	25.7	85.400946609731
66	103588	25.8	83.391459722035
66	103652	25.9	81.380988570638
66	103716	26	79.371634050231
66	103780	26.1	77.372191894738
66	103844	26.2	75.367782913583
66	103908	26.3	73.366269065721
66	103972	26.4	71.359234872427
66	104036	26.5	69.348571130366
66	104100	26.6	67.342346891385
66	104164	26.7	65.335326439485
66	104228	26.8	63.332066340051
66	104292	26.9	61.324942499053
66	104356	27	59.315088680823
66	104387	27.1	57.303906765163
66	104418	27.2	55.301683519752
66	104449	27.3	53.299873324374
66	104480	27.4	51.288652508781
66	104511	27.5	49.289613472913
66	104542	27.6	47.286004282718
66	104573	27.7	45.27617134773
66	104604	27.8	43.274406542386
66	104635	27.9	41.273431672627
66	104666	28	39.272017389969
66	104697	28.1	37.267706720438
66	104728	28.2	35.263580797463
66	104759	28.3	33.257390365939
66	104790	28.4	31.251826875754
66	104800	28.5	29.242731650412
66	104810	28.6	27.237796504831
65	18542	9.1	26.697598627787
65	19173	9.2	26.697598627787
65	19804	9.3	26.716357202929
65	20435	9.4	26.735018673553
65	21066	9.5	26.753760339754
65	21697	9.6	26.772523171946
65	22328	9.7	26.791198636105
65	22959	9.8	26.809944595344
65	23590	9.9	26.828699588358
65	24221	10	26.847426070355
65	24852	10.1	26.866124577665
65	25483	10.2	26.884881165836
65	26114	10.3	26.903634236215
65	26745	10.4	26.922358273604
65	27376	10.5	26.941130606831
65	28007	10.6	26.959864412
65	28638	10.7	26.978641735555
65	29269	10.8	26.997376689097
65	29900	10.9	27.016150162393
65	30531	11	27.034864535009
65	31162	11.1	27.053585675767
65	31793	11.2	27.072347193572
65	32424	11.3	27.091046070598
65	33055	11.4	27.109812380056
65	33686	11.5	27.128492637127
65	34317	11.6	27.147223650898
65	34948	11.7	27.165957097423
65	35579	11.8	27.184642522539
65	36210	11.9	27.203344915165
65	36841	12	27.222068544683
65	37472	12.1	27.240802683359
65	38103	12.2	27.259471800186
65	38734	12.3	27.278178550973
65	39365	12.4	27.296914924394
65	39996	12.5	27.315621947622
65	40627	12.6	27.334320462404
65	41258	12.7	27.353037794844
65	41889	12.8	27.371794360626
65	42520	12.9	27.39055877108
65	43151	13	27.409237759627
65	43782	13.1	27.427903397455
65	44413	13.2	27.446645656324
65	45044	13.3	27.465389987495
65	45675	13.4	27.484085555741
65	46306	13.5	27.502790082027
65	46937	13.6	27.521513765516
65	47568	13.7	27.540229807574
65	48199	13.8	27.558914015449
65	48830	13.9	27.577669161172
65	49461	14	27.596387276896
65	50092	14.1	27.615136295101
65	50723	14.2	27.633836931091
65	51354	14.3	27.652600052561
65	51985	14.4	27.671315478358
65	52616	14.5	27.689979089795
65	53247	14.6	27.708731931997
65	53878	14.7	27.727442139858
65	54509	14.8	27.746135435433
65	55140	14.9	27.764794654932
65	55771	15	27.783459240156
65	56402	15.1	27.802233510229
65	57033	15.2	27.82091367007
65	57664	15.3	27.839664626891
65	58295	15.4	27.858376619628
65	58926	15.5	27.877067794839
65	59557	15.6	27.895730589936
65	60188	15.7	27.914433864673
65	60819	15.8	27.933185740302
65	61450	15.9	27.951878988277
65	62081	16	27.970598048467
65	62712	16.1	27.989282572919
65	63343	16.2	28.007969109423
65	63974	16.3	28.026630711396
65	64605	16.4	28.045324012487
65	65236	16.5	28.064082050881
65	65867	16.6	28.082839000656
65	66498	16.7	28.101566554968
65	67129	16.8	28.120229589504
65	67760	16.9	28.138932505086
65	68391	17	28.157691659328
65	69022	17.1	28.176359998006
65	69653	17.2	28.195020069954
65	70284	17.3	28.213765385486
65	70915	17.4	28.2324938041
65	71546	17.5	28.251255460719
65	72177	17.6	28.270003148058
65	72808	17.7	28.288723905549
65	73439	17.8	28.307436045824
65	74070	17.9	28.326172218793
65	74701	18	28.344887649405
65	75332	18.1	28.363585472839
65	75963	18.2	28.382249039935
65	76594	18.3	28.400933008922
65	77225	18.4	28.419647559876
65	77856	18.5	28.438396047299
65	78487	18.6	28.457111370203
65	79118	18.7	28.47588726782
65	79749	18.8	28.494660343481
65	80380	18.9	28.513427483767
65	81011	19	28.532178710655
65	81642	19.1	28.550883622539
65	82273	19.2	28.56960651298
65	82904	19.3	28.588276828753
65	83535	19.4	28.606953285626
65	84166	19.5	28.625717411925
65	84797	19.6	28.644460950207
65	85428	19.7	28.663225906493
65	85942	19.8	28.681957324895
65	86456	19.9	28.700681883143
65	86970	20	28.719410138409
65	87484	20.1	28.738075615061
65	87998	20.2	28.756748626662
65	88512	20.3	28.775443635907
65	89026	20.4	28.794117832304
65	89540	20.5	28.812854813415
65	90054	20.6	28.831615228766
65	90568	20.7	28.850344158178
65	90977	20.8	28.869095878308
65	91386	20.9	28.887787517258
65	91795	21	28.90651160448
65	92204	21.1	28.925280012279
65	92613	21.2	28.94402575464
65	93022	21.3	28.962745649109
65	93431	21.4	28.981494184603
65	93840	21.5	29.000157886233
65	94249	21.6	29.018859869761
65	94658	21.7	29.037545196307
65	94974	21.8	29.056206743
65	95290	21.9	29.074974745397
65	95606	22	29.093675856097
65	95922	22.1	29.112373797271
65	96238	22.2	29.131087391532
65	96554	22.3	29.149770196285
65	96870	22.4	29.168494219187
65	97186	22.5	29.18718270795
65	97502	22.6	29.205865794139
65	97818	22.7	29.224608025546
65	98053	22.8	29.243373295701
65	98288	22.9	29.262133158728
65	98523	23	29.280846678682
65	98758	23.1	29.299546055816
65	98993	23.2	29.318270094131
65	99228	23.3	29.336951757972
65	99463	23.4	29.355720018215
65	99698	23.5	29.374410688545
65	99933	23.6	29.393117463967
65	100168	23.7	29.411825412555
65	100403	23.8	29.430519641346
65	100638	23.9	29.44917713517
65	100873	24	29.467950309535
65	101039	24.1	29.486657238461
65	101205	24.2	29.505388528431
65	101371	24.3	29.524144984958
65	101537	24.4	29.542889409032
65	101703	24.5	29.56163954566
65	101869	24.6	29.580346039657
65	102035	24.7	29.599076278826
65	102201	24.8	29.61783754817
65	102367	24.9	29.636586604205
65	102533	25	29.65529353691
65	102699	25.1	29.674003372383
65	102865	25.2	29.692714961687
65	103031	25.3	29.711446004476
65	103197	25.4	29.730109322605
65	103306	25.5	29.748879122446
65	103415	25.6	29.767651064841
65	103524	25.7	29.786353196135
65	103588	25.8	29.805108339501
65	103652	25.9	29.823872669295
65	103716	26	29.842626577237
65	103780	26.1	29.861287970107
65	103844	26.2	29.879995719849
65	103908	26.3	29.898676448444
65	103972	26.4	29.917408700078
65	104036	26.5	29.936174827378
65	104100	26.6	29.954899519466
65	104164	26.7	29.973631642847
65	104228	26.8	29.992328669732
65	104292	26.9	30.011061758075
65	104356	27	30.029820326113
65	104387	27.1	30.048591289683
65	104418	27.2	30.067278639298
65	104449	27.3	30.085962133794
65	104480	27.4	30.104733460428
65	104511	27.5	30.123391090861
65	104542	27.6	30.142091375915
65	104573	27.7	30.160849749044
65	104604	27.8	30.179532819901
65	104635	27.9	30.198208518052
65	104666	28	30.216888317375
65	104697	28.1	30.235595149546
65	104728	28.2	30.254300257421
65	104759	28.3	30.273024633973
65	104790	28.4	30.291743159094
65	104800	28.5	30.310494646958
65	104810	28.6	30.32920730755
