version 2
run General-0-20161209-17:42:16-31577
attr configname General
attr datetime 20161209-17:42:16
attr experiment General
attr inifile omnetpp.ini
attr iterationvars ""
attr iterationvars2 $repetition=0
attr measurement ""
attr network com.liborio.locvanet.LocScenario
attr processid 31577
attr repetition 0
attr replication #0
attr resultdir results
attr runnumber 0
attr seedset 0
param **.coreDebug false
param **.debug false
param *.**.nic.mac1609_4.bitrate 18Mbps
param *.**.nic.mac1609_4.txPower 20mW
param *.**.nic.mac1609_4.useServiceChannel false
param *.**.nic.phy80211p.analogueModels "xmldoc(\"config_trgi.xml\")"
param *.**.nic.phy80211p.decider "xmldoc(\"config_trgi.xml\")"
param *.**.nic.phy80211p.sensitivity -89dBm
param *.**.nic.phy80211p.thermalNoise -110dBm
param *.**.nic.phy80211p.usePropagationDelay true
param *.**.nic.phy80211p.useThermalNoise true
param *.annotations.draw false
param *.connectionManager.alpha 2.0
param *.connectionManager.carrierFrequency "5.890e9 Hz"
param *.connectionManager.pMax 20mW
param *.connectionManager.sat -89dBm
param *.connectionManager.sendDirect true
param *.manager.autoShutdown true
param *.manager.host "\"localhost\""
param *.manager.launchConfig "xmldoc(\"tunnel.launchd.xml\")"
param *.manager.margin 25
param *.manager.moduleDisplayString "\"\""
param *.manager.moduleName "\"node\""
param *.manager.moduleType "\"org.car2x.veins.nodes.Car\""
param *.manager.port 9999
param *.manager.updateInterval 0.1s
param *.node[*].appl.beaconInterval 0.1s
param *.node[*].appl.beaconPriority 3
param *.node[*].appl.dataOnSch false
param *.node[*].appl.dataPriority 2
param *.node[*].appl.debug false
param *.node[*].appl.headerLength "256 bit"
param *.node[*].appl.maxOffset 0.005s
param *.node[*].appl.sendBeacons true
param *.node[*].appl.sendData true
param *.node[*].applType "\"LocAppCom\""
param *.node[*].mobilityType "\"TraCIMobility\""
param *.node[*].mobilityType.debug true
param *.node[*].veinsmobility.x 0
param *.node[*].veinsmobility.y 0
param *.node[*].veinsmobility.z 1.895
param *.node[*].veinsmobilityType "\"org.car2x.veins.modules.mobility.traci.TraCIMobility\""
param *.node[*].veinsmobilityType.debug true
param *.playgroundSizeX 5000m
param *.playgroundSizeY 5000m
param *.playgroundSizeZ 50m
param *.world.use2D false
param *.world.useTorus false

vector 2  LocScenario.node[0].veinsmobility  posx  ETV
vector 3  LocScenario.node[0].veinsmobility  posy  ETV
vector 4  LocScenario.node[0].veinsmobility  speed  ETV
vector 5  LocScenario.node[0].veinsmobility  acceleration  ETV
vector 6  LocScenario.node[0].veinsmobility  co2emission  ETV
vector 9  LocScenario.node[1].veinsmobility  posx  ETV
vector 10  LocScenario.node[1].veinsmobility  posy  ETV
vector 11  LocScenario.node[1].veinsmobility  speed  ETV
vector 12  LocScenario.node[1].veinsmobility  acceleration  ETV
vector 13  LocScenario.node[1].veinsmobility  co2emission  ETV
vector 16  LocScenario.node[2].veinsmobility  posx  ETV
vector 17  LocScenario.node[2].veinsmobility  posy  ETV
vector 18  LocScenario.node[2].veinsmobility  speed  ETV
vector 19  LocScenario.node[2].veinsmobility  acceleration  ETV
vector 20  LocScenario.node[2].veinsmobility  co2emission  ETV
vector 23  LocScenario.node[3].veinsmobility  posx  ETV
vector 24  LocScenario.node[3].veinsmobility  posy  ETV
vector 25  LocScenario.node[3].veinsmobility  speed  ETV
vector 26  LocScenario.node[3].veinsmobility  acceleration  ETV
vector 27  LocScenario.node[3].veinsmobility  co2emission  ETV
vector 30  LocScenario.node[4].veinsmobility  posx  ETV
vector 31  LocScenario.node[4].veinsmobility  posy  ETV
vector 32  LocScenario.node[4].veinsmobility  speed  ETV
vector 33  LocScenario.node[4].veinsmobility  acceleration  ETV
vector 34  LocScenario.node[4].veinsmobility  co2emission  ETV
vector 37  LocScenario.node[5].veinsmobility  posx  ETV
vector 38  LocScenario.node[5].veinsmobility  posy  ETV
vector 39  LocScenario.node[5].veinsmobility  speed  ETV
vector 40  LocScenario.node[5].veinsmobility  acceleration  ETV
vector 41  LocScenario.node[5].veinsmobility  co2emission  ETV
vector 44  LocScenario.node[6].veinsmobility  posx  ETV
vector 45  LocScenario.node[6].veinsmobility  posy  ETV
vector 46  LocScenario.node[6].veinsmobility  speed  ETV
vector 47  LocScenario.node[6].veinsmobility  acceleration  ETV
vector 48  LocScenario.node[6].veinsmobility  co2emission  ETV
vector 51  LocScenario.node[7].veinsmobility  posx  ETV
vector 52  LocScenario.node[7].veinsmobility  posy  ETV
vector 53  LocScenario.node[7].veinsmobility  speed  ETV
vector 54  LocScenario.node[7].veinsmobility  acceleration  ETV
vector 55  LocScenario.node[7].veinsmobility  co2emission  ETV
vector 58  LocScenario.node[8].veinsmobility  posx  ETV
vector 59  LocScenario.node[8].veinsmobility  posy  ETV
vector 60  LocScenario.node[8].veinsmobility  speed  ETV
vector 61  LocScenario.node[8].veinsmobility  acceleration  ETV
vector 62  LocScenario.node[8].veinsmobility  co2emission  ETV
vector 65  LocScenario.node[9].veinsmobility  posx  ETV
vector 66  LocScenario.node[9].veinsmobility  posy  ETV
vector 67  LocScenario.node[9].veinsmobility  speed  ETV
vector 68  LocScenario.node[9].veinsmobility  acceleration  ETV
vector 69  LocScenario.node[9].veinsmobility  co2emission  ETV
6	22	0.3	2.0504865900066
6	32	0.4	2.0062547048879
6	42	0.5	4.3368700060797
6	52	0.6	1.2155295973938
6	62	0.7	4.7881378745982
6	72	0.8	0.91982462213609
6	82	0.9	5.4870584291106
6	92	1	1.5649662441337
6	102	1.1	2.679396520546
6	133	1.2	4.1332642144708
6	164	1.3	0.973
6	195	1.4	2.3626493702194
6	226	1.5	6.4734381335528
6	257	1.6	0.973
6	288	1.7	4.473111323296
6	319	1.8	2.5753079774902
6	350	1.9	0.57339435374697
6	381	2	8.2158535193553
6	412	2.1	2.7297977790708
6	476	2.2	0.973
6	540	2.3	7.1899043692652
6	604	2.4	0.973
6	668	2.5	3.9307590985578
6	732	2.6	2.9446104524614
6	796	2.7	3.1938273826951
6	860	2.8	6.4655799471778
6	924	2.9	0.973
6	988	3	4.9867065573132
6	1052	3.1	4.2666842506636
6	1161	3.2	2.6382748475871
6	1270	3.3	2.1494644920886
6	1379	3.4	3.4692781195745
6	1488	3.5	0.973
6	1597	3.6	4.6381340363946
6	1706	3.7	6.0675363664438
6	1815	3.8	0.973
6	1924	3.9	4.6807261833064
6	2033	4	1.2526691275395
6	2142	4.1	6.4206105862985
6	2308	4.2	2.4301086694449
6	2474	4.3	0.973
6	2640	4.4	6.1477824662743
6	2806	4.5	3.6329686711288
6	2972	4.6	4.0886116164842
6	3138	4.7	0.973
6	3304	4.8	1.7158147810574
6	3470	4.9	2.5624884565565
6	3636	5	4.5367634802694
6	3802	5.1	3.8492082527076
6	4037	5.2	4.8649213608462
6	4272	5.3	3.1755739310068
6	4507	5.4	1.5611011388581
6	4742	5.5	0.87068086557086
6	4977	5.6	2.2450598437325
6	5212	5.7	5.2053051589552
6	5447	5.8	4.5299117110086
6	5682	5.9	0.973
6	5917	6	1.0316002757488
6	6152	6.1	5.1450171752999
6	6468	6.2	2.2664981478537
6	6784	6.3	5.2340454820951
6	7100	6.4	3.1276214446223
6	7416	6.5	0.973
6	7732	6.6	4.9020817930468
6	8048	6.7	3.4136661313872
6	8364	6.8	0.973
6	8680	6.9	3.9466212632108
6	8996	7	0.973
6	9312	7.1	6.6073280684777
6	9721	7.2	0.70794317644646
6	10130	7.3	0.9649652882965
6	10539	7.4	5.2266797691995
6	10948	7.5	3.112944616539
6	11357	7.6	3.5498594854085
6	11766	7.7	0.973
6	12175	7.8	7.1373974799096
6	12584	7.9	3.7976308607792
6	12993	8	0.973
6	13402	8.1	4.7450172524365
6	13916	8.2	3.3611216014776
6	14430	8.3	4.8633697053504
6	14944	8.4	1.0755205688217
6	15458	8.5	2.839320802166
6	15972	8.6	5.7515892740802
6	16486	8.7	0.973
6	17000	8.8	4.990519668898
6	17514	8.9	0.973
6	18028	9	5.1696240579345
6	18542	9.1	1.5041603684009
6	19173	9.2	0.973
6	19804	9.3	4.7729658638615
6	20435	9.4	2.6395812830728
6	21066	9.5	1.7774519238672
6	21697	9.6	7.9371214741048
6	22328	9.7	0.973
6	22959	9.8	7.0449051925666
6	23590	9.9	0.973
6	24221	10	3.429562613398
6	24852	10.1	2.1336740627198
6	25483	10.2	6.1103807202081
6	26114	10.3	0.973
6	26745	10.4	6.3242728785245
6	27376	10.5	2.9635128655077
6	28007	10.6	3.1201537311639
6	28638	10.7	3.0398548807493
6	29269	10.8	0.973
6	29900	10.9	3.6374052730658
6	30531	11	3.8266598675027
6	31162	11.1	3.7661373518113
6	31793	11.2	5.0717508759345
6	32424	11.3	2.2500835225987
6	33055	11.4	0.973
6	33686	11.5	2.1658563883234
6	34317	11.6	3.4379973505912
6	34948	11.7	4.3571682540167
6	35579	11.8	2.5716509700307
6	36210	11.9	0.9456484911259
6	36841	12	3.8275848186027
6	37472	12.1	5.3930618563587
6	38103	12.2	4.1590417848842
6	38734	12.3	2.9097779500083
6	39365	12.4	0.973
6	39996	12.5	2.8457604165361
6	40627	12.6	1.3352916389137
6	41258	12.7	6.5717881969951
6	41889	12.8	0.973
6	42520	12.9	4.5456745242433
6	43151	13	4.9151959949319
6	43782	13.1	0.79762338598202
6	44413	13.2	2.7456769148377
6	45044	13.3	2.5279858554947
6	45675	13.4	3.2321574853834
6	46306	13.5	3.4942598744736
6	46937	13.6	2.9267054409532
6	47568	13.7	1.9214618523107
6	48199	13.8	2.8943372724184
6	48830	13.9	3.3175854623045
6	49461	14	3.425132008336
6	50092	14.1	3.1617076218706
6	50723	14.2	0.973
6	51354	14.3	1.0066992323971
6	51985	14.4	7.2425371076283
6	52616	14.5	0.973
6	53247	14.6	3.2857787114022
6	53878	14.7	7.4027211164516
6	54509	14.8	0.67333041308937
6	55140	14.9	1.7740578364215
6	55771	15	1.6919295398588
6	56402	15.1	4.6945851440333
6	57033	15.2	0.63270417276349
6	57664	15.3	6.7052030438298
6	58295	15.4	1.7859709079475
6	58926	15.5	2.9130473543874
6	59557	15.6	2.1823168685419
6	60188	15.7	1.0328628897057
6	60819	15.8	5.4802599140776
6	61450	15.9	4.6161902588292
6	62081	16	2.9220597458786
6	62712	16.1	0.973
6	63343	16.2	4.3637486666874
6	63974	16.3	2.2046483815532
6	64605	16.4	4.381700142582
6	65236	16.5	0.973
6	65867	16.6	4.7405577356073
6	66498	16.7	0.68589827323048
6	67129	16.8	4.0892444473325
6	67760	16.9	0.973
6	68391	17	2.0872649228393
6	69022	17.1	8.0219316582283
6	69653	17.2	2.6804668238901
6	70284	17.3	1.6444845276463
6	70915	17.4	1.1183223187807
6	71546	17.5	5.3924269337253
6	72177	17.6	1.6090789166291
6	72808	17.7	2.2528526658386
6	73439	17.8	5.5643338844615
6	74070	17.9	2.300120920387
6	74701	18	1.247405079645
6	75332	18.1	3.144987712969
6	75963	18.2	0.973
6	76594	18.3	3.1219978708991
6	77225	18.4	7.0214959357136
6	77856	18.5	0.59914355090104
6	78487	18.6	3.1276229827366
6	79118	18.7	3.8570903199287
6	79749	18.8	0.973
6	80380	18.9	5.8682346109729
6	81011	19	4.5081410830478
6	81642	19.1	2.6254801704436
6	82273	19.2	2.4418886820931
6	82904	19.3	3.8170619116242
6	83535	19.4	0.973
6	84166	19.5	1.3722599817131
6	84797	19.6	6.3544670429999
5	22	0.3	-0.15904817315747
5	32	0.4	-0.16779929285406
5	42	0.5	0.31395308582578
5	52	0.6	-0.33173692431301
5	62	0.7	0.40698117520662
5	72	0.8	-0.39307912783698
5	82	0.9	0.55067602260969
5	92	1	-0.25988156949168
5	102	1.1	-0.029029544303221
5	133	1.2	0.27079897664954
5	164	1.3	-0.5904415293131
5	195	1.4	-0.093456690991296
5	226	1.5	0.75428761555813
5	257	1.6	-0.53076856574044
5	288	1.7	0.34167914546561
5	319	1.8	-0.050894534890524
5	350	1.9	-0.46481769031381
5	381	2	1.1109287468717
5	412	2.1	-0.020921209733942
5	476	2.2	-0.9691377096344
5	540	2.3	0.89994978504258
5	604	2.4	-1.0897478351137
5	668	2.5	0.23101986751424
5	732	2.6	0.026496049901503
5	796	2.7	0.07786548128351
5	860	2.8	0.7504631759133
5	924	2.9	-0.79984103541353
5	988	3	0.44713978311044
5	1052	3.1	0.29682847554795
5	1161	3.2	-0.03928341581485
5	1270	3.3	-0.13986784163862
5	1379	3.4	0.13236550418661
5	1488	3.5	-0.88436021162199
5	1597	3.6	0.37639551239554
5	1706	3.7	0.66791804339736
5	1815	3.8	-0.72001758485566
5	1924	3.9	0.38348422059791
5	2033	4	-0.32458204545549
5	2142	4.1	0.74022681352218
5	2308	4.2	-0.082705195667216
5	2474	4.3	-1.1612311864272
5	2640	4.4	0.68768543063197
5	2806	4.5	0.1667941018939
5	2972	4.6	0.25977206840182
5	3138	4.7	-0.68164709410631
5	3304	4.8	-0.2280434502056
5	3470	4.9	-0.052323130448322
5	3636	5	0.35535233570261
5	3802	5.1	0.21207497550641
5	4037	5.2	0.41987816933542
5	4272	5.3	0.070954277249982
5	4507	5.4	-0.2616145871114
5	4742	5.5	-0.40372410528359
5	4977	5.6	-0.11890304540287
5	5212	5.7	0.49140557085632
5	5447	5.8	0.35008810255675
5	5682	5.9	-0.85502168538515
5	5917	6	-0.36968360729514
5	6152	6.1	0.48119060399475
5	6468	6.2	-0.1144177403534
5	6784	6.3	0.49740420759193
5	7100	6.4	0.061932879593201
5	7416	6.5	-0.61809540828691
5	7732	6.6	0.42950048604983
5	8048	6.7	0.12128281870389
5	8364	6.8	-0.58187352577225
5	8680	6.9	0.23296640184711
5	8996	7	-0.51869591076393
5	9312	7.1	0.78181986263953
5	9721	7.2	-0.43722472807858
5	10130	7.3	-0.38344594249502
5	10539	7.4	0.49827366601676
5	10948	7.5	0.0603964700829
5	11357	7.6	0.15022548330016
5	11766	7.7	-0.5229388615815
5	12175	7.8	0.88942576511766
5	12584	7.9	0.19904024843125
5	12993	8	-1.1824273481034
5	13402	8.1	0.39858375173061
5	13916	8.2	0.11159929225688
5	14430	8.3	0.42021498389076
5	14944	8.4	-0.36148878983223
5	15458	8.5	0.0034074246185156
5	15972	8.6	0.60210667038337
5	16486	8.7	-0.75707623183263
5	17000	8.8	0.44683948778548
5	17514	8.9	-0.49720088816247
5	18028	9	0.48391533636021
5	18542	9.1	-0.27282655956224
5	19173	9.2	-0.61625490996523
5	19804	9.3	0.40454234725331
5	20435	9.4	-0.0371577830985
5	21066	9.5	-0.21525554733817
5	21697	9.6	1.0529682404827
5	22328	9.7	-0.91161303042899
5	22959	9.8	0.86925210556949
5	23590	9.9	-0.83259344061371
5	24221	10	0.12612512009216
5	24852	10.1	-0.14181139729917
5	25483	10.2	0.67758461281194
5	26114	10.3	-1.0278970792191
5	26745	10.4	0.72385098957454
5	27376	10.5	0.028734341263785
5	28007	10.6	0.060903791454621
5	28638	10.7	0.044149440340675
5	29269	10.8	-0.72481459595728
5	29900	10.9	0.16994312449825
5	30531	11	0.20825916042085
5	31162	11.1	0.19489579780494
5	31793	11.2	0.46232984033413
5	32424	11.3	-0.11958748472388
5	33055	11.4	-0.78107200250962
5	33686	11.5	-0.13457251116634
5	34317	11.6	0.12877971518321
5	34948	11.7	0.31775168206075
5	35579	11.8	-0.051608427683796
5	36210	11.9	-0.38767115506346
5	36841	12	0.20915283535142
5	37472	12.1	0.53034541115629
5	38103	12.2	0.2740627197549
5	38734	12.3	0.016207902017022
5	39365	12.4	-0.47109039879867
5	39996	12.5	0.0045495055615774
5	40627	12.6	-0.30730891895946
5	41258	12.7	0.77185896583831
5	41889	12.8	-0.73228932961353
5	42520	12.9	0.35568701061418
5	43151	13	0.42973702126183
5	43782	13.1	-0.41917558889836
5	44413	13.2	-0.016414894768957
5	45044	13.3	-0.061236679647116
5	45675	13.4	0.084075070125955
5	46306	13.5	0.13770609921778
5	46937	13.6	0.020394134265374
5	47568	13.7	-0.1867992559448
5	48199	13.8	0.014290692517527
5	48830	13.9	0.10140285484958
5	49461	14	0.12314207651652
5	50092	14.1	0.068494940921688
5	50723	14.2	-0.68000103912784
5	51354	14.3	-0.37485469284
5	51985	14.4	0.91202080524525
5	52616	14.5	-0.92478458604308
5	53247	14.6	0.097775444947175
5	53878	14.7	0.94417282652575
5	54509	14.8	-0.44466824696865
5	55140	14.9	-0.21643114644103
5	55771	15	-0.23294515130107
5	56402	15.1	0.38770924368873
5	57033	15.2	-0.45253876538482
5	57664	15.3	0.80131475387606
5	58295	15.4	-0.21460919966923
5	58926	15.5	0.018451917660443
5	59557	15.6	-0.13232818678954
5	60188	15.7	-0.36967737511731
5	60819	15.8	0.54911906477063
5	61450	15.9	0.36855724905617
5	62081	16	0.018836933071746
5	62712	16.1	-0.61578074414285
5	63343	16.2	0.31781870778651
5	63974	16.3	-0.12808198065031
5	64605	16.4	0.32058473839424
5	65236	16.5	-0.53267630347982
5	65867	16.6	0.39540609288959
5	66498	16.7	-0.44189288686027
5	67129	16.8	0.26166020792441
5	67760	16.9	-0.50691373096779
5	68391	17	-0.15069165353196
5	69022	17.1	1.0713940965012
5	69653	17.2	-0.030895064258942
5	70284	17.3	-0.24422652823851
5	70915	17.4	-0.35242116872688
5	71546	17.5	0.52929300062825
5	72177	17.6	-0.251390675758
5	72808	17.7	-0.11797493731137
5	73439	17.8	0.56360146924852
5	74070	17.9	-0.10945214778186
5	74701	18	-0.32618076917714
5	75332	18.1	0.065871010627596
5	75963	18.2	-0.50679785755928
5	76594	18.3	0.062724311999034
5	77225	18.4	0.86381120486188
5	77856	18.5	-0.46022292170676
5	78487	18.6	0.062203810736534
5	79118	18.7	0.21201702654363
5	79749	18.8	-0.99698437962214
5	80380	18.9	0.62952987099997
5	81011	19	0.34651483148334
5	81642	19.1	-0.04202175817916
5	82273	19.2	-0.07969943354837
5	82904	19.3	0.20349139575846
5	83535	19.4	-0.84414588762446
5	84166	19.5	-0.2989550571656
5	84797	19.6	0.72997841900214
4	12	0.2	20.042930199869
4	22	0.3	20.027025382554
4	32	0.4	20.010245453268
4	42	0.5	20.041640761851
4	52	0.6	20.00846706942
4	62	0.7	20.04916518694
4	72	0.8	20.009857274157
4	82	0.9	20.064924876417
4	92	1	20.038936719468
4	102	1.1	20.036033765038
4	133	1.2	20.063113662703
4	164	1.3	20.004069509772
4	195	1.4	19.994723840673
4	226	1.5	20.070152602228
4	257	1.6	20.017075745654
4	288	1.7	20.051243660201
4	319	1.8	20.046154206712
4	350	1.9	19.99967243768
4	381	2	20.110765312368
4	412	2.1	20.108673191394
4	476	2.2	20.011759420431
4	540	2.3	20.101754398935
4	604	2.4	19.992779615424
4	668	2.5	20.015881602175
4	732	2.6	20.018531207165
4	796	2.7	20.026317755294
4	860	2.8	20.101364072885
4	924	2.9	20.021379969344
4	988	3	20.066093947655
4	1052	3.1	20.095776795209
4	1161	3.2	20.091848453628
4	1270	3.3	20.077861669464
4	1379	3.4	20.091098219883
4	1488	3.5	20.002662198721
4	1597	3.6	20.04030174996
4	1706	3.7	20.1070935543
4	1815	3.8	20.035091795814
4	1924	3.9	20.073440217874
4	2033	4	20.040982013328
4	2142	4.1	20.115004694681
4	2308	4.2	20.106734175114
4	2474	4.3	19.990611056471
4	2640	4.4	20.059379599534
4	2806	4.5	20.076059009724
4	2972	4.6	20.102036216564
4	3138	4.7	20.033871507153
4	3304	4.8	20.011067162133
4	3470	4.9	20.005834849088
4	3636	5	20.041370082658
4	3802	5.1	20.062577580209
4	4037	5.2	20.104565397142
4	4272	5.3	20.111660824867
4	4507	5.4	20.085499366156
4	4742	5.5	20.045126955628
4	4977	5.6	20.033236651088
4	5212	5.7	20.082377208173
4	5447	5.8	20.117386018429
4	5682	5.9	20.03188384989
4	5917	6	19.994915489161
4	6152	6.1	20.04303454956
4	6468	6.2	20.031592775525
4	6784	6.3	20.081333196284
4	7100	6.4	20.087526484244
4	7416	6.5	20.025716943415
4	7732	6.6	20.06866699202
4	8048	6.7	20.08079527389
4	8364	6.8	20.022607921313
4	8680	6.9	20.045904561498
4	8996	7	19.994034970421
4	9312	7.1	20.072216956685
4	9721	7.2	20.028494483877
4	10130	7.3	19.990149889628
4	10539	7.4	20.03997725623
4	10948	7.5	20.046016903238
4	11357	7.6	20.061039451568
4	11766	7.7	20.00874556541
4	12175	7.8	20.097688141922
4	12584	7.9	20.117592166765
4	12993	8	19.999349431954
4	13402	8.1	20.039207807127
4	13916	8.2	20.050367736353
4	14430	8.3	20.092389234742
4	14944	8.4	20.056240355759
4	15458	8.5	20.056581098221
4	15972	8.6	20.116791765259
4	16486	8.7	20.041084142076
4	17000	8.8	20.085768090854
4	17514	8.9	20.036048002038
4	18028	9	20.084439535674
4	18542	9.1	20.057156879718
4	19173	9.2	19.995531388721
4	19804	9.3	20.035985623447
4	20435	9.4	20.032269845137
4	21066	9.5	20.010744290403
4	21697	9.6	20.116041114451
4	22328	9.7	20.024879811408
4	22959	9.8	20.111805021965
4	23590	9.9	20.028545677904
4	24221	10	20.041158189913
4	24852	10.1	20.026977050183
4	25483	10.2	20.094735511465
4	26114	10.3	19.991945803543
4	26745	10.4	20.0643309025
4	27376	10.5	20.067204336626
4	28007	10.6	20.073294715772
4	28638	10.7	20.077709659806
4	29269	10.8	20.00522820021
4	29900	10.9	20.02222251266
4	30531	11	20.043048428702
4	31162	11.1	20.062538008483
4	31793	11.2	20.108770992516
4	32424	11.3	20.096812244044
4	33055	11.4	20.018705043793
4	33686	11.5	20.005247792676
4	34317	11.6	20.018125764194
4	34948	11.7	20.0499009324
4	35579	11.8	20.044740089632
4	36210	11.9	20.005972974126
4	36841	12	20.026888257661
4	37472	12.1	20.079922798777
4	38103	12.2	20.107329070752
4	38734	12.3	20.108949860954
4	39365	12.4	20.061840821074
4	39996	12.5	20.06229577163
4	40627	12.6	20.031564879734
4	41258	12.7	20.108750776318
4	41889	12.8	20.035521843357
4	42520	12.9	20.071090544418
4	43151	13	20.114064246544
4	43782	13.1	20.072146687654
4	44413	13.2	20.070505198177
4	45044	13.3	20.064381530213
4	45675	13.4	20.072789037225
4	46306	13.5	20.086559647147
4	46937	13.6	20.088599060574
4	47568	13.7	20.069919134979
4	48199	13.8	20.071348204231
4	48830	13.9	20.081488489716
4	49461	14	20.093802697368
4	50092	14.1	20.10065219146
4	50723	14.2	20.032652087547
4	51354	14.3	19.995166618263
4	51985	14.4	20.086368698787
4	52616	14.5	19.993890240183
4	53247	14.6	20.003667784678
4	53878	14.7	20.09808506733
4	54509	14.8	20.053618242634
4	55140	14.9	20.031975127989
4	55771	15	20.008680612859
4	56402	15.1	20.047451537228
4	57033	15.2	20.00219766069
4	57664	15.3	20.082329136077
4	58295	15.4	20.06086821611
4	58926	15.5	20.062713407876
4	59557	15.6	20.049480589197
4	60188	15.7	20.012512851686
4	60819	15.8	20.067424758163
4	61450	15.9	20.104280483068
4	62081	16	20.106164176376
4	62712	16.1	20.044586101961
4	63343	16.2	20.07636797274
4	63974	16.3	20.063559774675
4	64605	16.4	20.095618248514
4	65236	16.5	20.042350618166
4	65867	16.6	20.081891227455
4	66498	16.7	20.037701938769
4	67129	16.8	20.063867959562
4	67760	16.9	20.013176586465
4	68391	17	19.998107421112
4	69022	17.1	20.105246830762
4	69653	17.2	20.102157324336
4	70284	17.3	20.077734671512
4	70915	17.4	20.042492554639
4	71546	17.5	20.095421854702
4	72177	17.6	20.070282787126
4	72808	17.7	20.058485293395
4	73439	17.8	20.11484544032
4	74070	17.9	20.103900225542
4	74701	18	20.071282148624
4	75332	18.1	20.077869249687
4	75963	18.2	20.027189463931
4	76594	18.3	20.033461895131
4	77225	18.4	20.119843015617
4	77856	18.5	20.073820723447
4	78487	18.6	20.08004110452
4	79118	18.7	20.101242807175
4	79749	18.8	20.001544369212
4	80380	18.9	20.064497356312
4	81011	19	20.099148839461
4	81642	19.1	20.094946663643
4	82273	19.2	20.086976720288
4	82904	19.3	20.107325859864
4	83535	19.4	20.022911271101
4	84166	19.5	19.993015765385
4	84797	19.6	20.066013607285
3	2	0.1	416.34012864494
3	12	0.2	416.34012864494
3	22	0.3	414.33588618224
3	32	0.4	412.33323416115
3	42	0.5	410.33226009066
3	52	0.6	408.32814656851
3	62	0.7	406.32735033192
3	72	0.8	404.32248438624
3	82	0.9	402.32154913269
3	92	1	400.31510725781
3	102	1.1	398.31126413307
3	133	1.2	396.30771129646
3	164	1.3	394.30145053839
3	195	1.4	392.30109404667
3	226	1.5	390.30167209829
3	257	1.6	388.29470746402
3	288	1.7	386.29305038152
3	319	1.8	384.28797659376
3	350	1.9	382.28341173851
3	381	2	380.28349494291
3	412	2.1	378.27246914007
3	476	2.2	376.26165254405
3	540	2.3	374.26052708066
3	604	2.4	372.25040234643
3	668	2.5	370.25117481568
3	732	2.6	368.24963714451
3	796	2.7	366.24783451954
3	860	2.8	364.24525325939
3	924	2.9	362.23516755678
3	988	3	360.23308006278
3	1052	3.1	358.22652128372
3	1161	3.2	356.21699429479
3	1270	3.3	354.20786013011
3	1379	3.4	352.20012460856
3	1488	3.5	350.19106546536
3	1597	3.6	348.1908497012
3	1706	3.7	346.18687007686
3	1815	3.8	344.17621144056
3	1924	3.9	342.17275279849
3	2033	4	340.16545941095
3	2142	4.1	338.16141176199
3	2308	4.2	336.14996203161
3	2474	4.3	334.13933933233
3	2640	4.4	332.14032865199
3	2806	4.5	330.13444129082
3	2972	4.6	328.1268860307
3	3138	4.7	326.11673311542
3	3304	4.8	324.11339649914
3	3470	4.9	322.11234025984
3	3636	5	320.11180723864
3	3802	5.1	318.10772078373
3	4037	5.2	316.10151363255
3	4272	5.3	314.09110780559
3	4507	5.4	312.07999245376
3	4742	5.5	310.07149318181
3	4977	5.6	308.06703104907
3	5212	5.7	306.0637579168
3	5447	5.8	304.05557085277
3	5682	5.9	302.04388299602
3	5917	6	300.04074514045
3	6152	6.1	298.04130402771
3	6468	6.2	296.0370511303
3	6784	6.3	294.03394238144
3	7100	6.4	292.02585971596
3	7416	6.5	290.01715773732
3	7732	6.6	288.01463655684
3	8048	6.7	286.00782047984
3	8364	6.8	283.99979160525
3	8680	6.9	281.99758131914
3	8996	7	279.99304142778
3	9312	7.1	277.99368836469
3	9721	7.2	275.98651730018
3	10130	7.3	273.98371837267
3	10539	7.4	271.98475380785
3	10948	7.5	269.98080663207
3	11357	7.6	267.97625550681
3	11766	7.7	265.97020216462
3	12175	7.8	263.96937807914
3	12584	7.9	261.95965996035
3	12993	8	259.94795148929
3	13402	8.1	257.94806699345
3	13916	8.2	255.94419676064
3	14430	8.3	253.93921056305
3	14944	8.4	251.93002232162
3	15458	8.5	249.9244488769
3	15972	8.6	247.9188413588
3	16486	8.7	245.90721292587
3	17000	8.8	243.90315506429
3	17514	8.9	241.89462892055
3	18028	9	239.89107466027
3	18542	9.1	237.88268136869
3	19173	9.2	235.87701627389
3	19804	9.3	233.87751357274
3	20435	9.4	231.87396555017
3	21066	9.5	229.87078909605
3	21697	9.6	227.86976514311
3	22328	9.7	225.85821177336
3	22959	9.8	223.85577430398
3	23590	9.9	221.8446445328
3	24221	10	219.84184048601
3	24852	10.1	217.83777521983
3	25483	10.2	215.83512803186
3	26114	10.3	213.82570516868
3	26745	10.4	211.826561017
3	27376	10.5	209.82017853802
3	28007	10.6	207.81350872287
3	28638	10.7	205.80622988517
3	29269	10.8	203.79850956421
3	29900	10.9	201.79803720637
3	30531	11	199.79586546016
3	31162	11.1	197.79161117487
3	31793	11.2	195.78540798077
3	32424	11.3	193.77458160488
3	33055	11.4	191.76495107368
3	33686	11.5	189.76313106547
3	34317	11.6	187.76265674844
3	34948	11.7	185.76089466674
3	35579	11.8	183.75595514837
3	36210	11.9	181.75153170125
3	36841	12	179.7509848679
3	37472	12.1	177.74834655896
3	38103	12.2	175.74040492968
3	38734	12.3	173.72972274233
3	39365	12.4	171.71887848005
3	39996	12.5	169.71274500293
3	40627	12.6	167.7065660319
3	41258	12.7	165.70346007255
3	41889	12.8	163.69263571823
3	42520	12.9	161.68913407249
3	43151	13	159.68207564637
3	43782	13.1	157.67071995843
3	44413	13.2	155.66355592065
3	45044	13.3	153.65655602767
3	45675	13.4	151.65016848605
3	46306	13.5	149.64294021493
3	46937	13.6	147.63433491755
3	47568	13.7	145.62552568398
3	48199	13.8	143.61858439584
3	48830	13.9	141.61150020439
3	49461	14	139.60340200996
3	50092	14.1	137.59407242583
3	50723	14.2	135.58405790957
3	51354	14.3	133.58084323218
3	51985	14.4	131.58137700716
3	52616	14.5	129.57279080413
3	53247	14.6	127.5734522137
3	53878	14.7	125.57313589348
3	54509	14.8	123.56337808316
3	55140	14.9	121.55806684314
3	55771	15	119.55491985999
3	56402	15.1	117.5541022696
3	57033	15.2	115.54940768457
3	57664	15.3	113.54923837304
3	58295	15.4	111.5410561161
3	58926	15.5	109.53501989702
3	59557	15.6	107.52879916342
3	60188	15.7	105.52390167831
3	60819	15.8	103.5227008737
3	61450	15.9	101.51600901695
3	62081	16	99.505631680685
3	62712	16.1	97.495065979837
3	63343	16.2	95.490657931103
3	63974	16.3	93.483071775459
3	64605	16.4	91.476766407314
3	65236	16.5	89.467255272651
3	65867	16.6	87.463070766658
3	66498	16.7	85.454932299475
3	67129	16.8	83.451212649695
3	67760	16.9	81.444876463839
3	68391	17	79.443609287426
3	69022	17.1	77.443848989537
3	69653	17.2	75.433375020936
3	70284	17.3	73.423209995186
3	70915	17.4	71.415487173112
3	71546	17.5	69.41128847383
3	72177	17.6	67.401796978052
3	72808	17.7	65.394819325621
3	73439	17.8	63.389021392803
3	74070	17.9	61.377587587459
3	74701	18	59.367248275984
3	75332	18.1	57.360170689924
3	75963	18.2	55.352434410372
3	76594	18.3	53.349765981559
3	77225	18.4	51.346470325448
3	77856	18.5	49.33453677518
3	78487	18.6	47.327205338041
3	79118	18.7	45.319251878485
3	79749	18.8	43.309178302143
3	80380	18.9	41.309074318114
3	81011	19	39.30267519417
3	81642	19.1	37.292811009318
3	82273	19.2	35.283367031448
3	82904	19.3	33.274720027809
3	83535	19.4	31.264038161543
3	84166	19.5	29.261797541222
3	84797	19.6	27.262546396062
2	2	0.1	26.697598627787
2	12	0.2	26.697598627787
2	22	0.3	26.716304823363
2	32	0.4	26.73499617487
2	42	0.5	26.753671865562
2	52	0.6	26.772376857696
2	62	0.7	26.791050888611
2	72	0.8	26.80976290334
2	82	0.9	26.828438231741
2	92	1	26.847164955089
2	102	1.1	26.865867423524
2	133	1.2	26.884567182613
2	164	1.3	26.903292215544
2	195	1.4	26.921962142187
2	226	1.5	26.940623346458
2	257	1.6	26.959354948877
2	288	1.7	26.978037014324
2	319	1.8	26.996750968905
2	350	1.9	27.015460173467
2	381	2	27.034125996295
2	412	2.1	27.052895502817
2	476	2.2	27.071663056749
2	540	2.3	27.090340160436
2	604	2.4	27.109101257014
2	668	2.5	27.127760646727
2	732	2.6	27.146441597672
2	796	2.7	27.165125021511
2	860	2.8	27.183815712585
2	924	2.9	27.20257644487
2	988	3	27.221262527477
2	1052	3.1	27.239990341927
2	1161	3.2	27.25874585957
2	1270	3.3	27.277497710866
2	1379	3.4	27.296236508207
2	1488	3.5	27.314987659305
2	1597	3.6	27.333656272496
2	1706	3.7	27.352360014922
2	1815	3.8	27.371126094569
2	1924	3.9	27.389824974511
2	2033	4	27.408559645283
2	2142	4.1	27.427264022603
2	2308	4.2	27.446037485768
2	2474	4.3	27.464803230004
2	2640	4.4	27.483460595786
2	2806	4.5	27.502182143692
2	2972	4.6	27.520919258599
2	3138	4.7	27.5396806182
2	3304	4.8	27.558378359239
2	3470	4.9	27.577054816837
2	3636	5	27.595726391083
2	3802	5.1	27.614431130591
2	4037	5.2	27.633155663193
2	4272	5.3	27.651919383294
2	4507	5.4	27.670689725604
2	4742	5.5	27.689435651256
2	4977	5.6	27.708143897077
2	5212	5.7	27.726841045602
2	5447	5.8	27.745584057324
2	5682	5.9	27.764359742993
2	5917	6	27.783055628939
2	6152	6.1	27.801717012076
2	6468	6.2	27.820423305042
2	6784	6.3	27.839118919327
2	7100	6.4	27.857860956666
2	7416	6.5	27.87660877424
2	7732	6.6	27.895298904573
2	8048	6.7	27.914029120462
2	8364	6.8	27.932770655754
2	8680	6.9	27.951457884416
2	8996	7	27.970166855983
2	9312	7.1	27.988827417326
2	9721	7.2	28.00756094642
2	10130	7.3	28.026253669049
2	10539	7.4	28.044910604422
2	10948	7.5	28.063614043996
2	11357	7.6	28.082323120412
2	11766	7.7	28.101046217468
2	12175	7.8	28.119720508305
2	12584	7.9	28.138477809819
2	12993	8	28.157253687888
2	13402	8.1	28.175919209253
2	13916	8.2	28.194621930696
2	14430	8.3	28.213335067772
2	14944	8.4	28.232087423782
2	15458	8.5	28.250806041812
2	15972	8.6	28.269524977859
2	16486	8.7	28.288300108908
2	17000	8.8	28.307004581546
2	17514	8.9	28.325750758
2	18028	9	28.344450530376
2	18542	9.1	28.363195466882
2	19173	9.2	28.381914940309
2	19804	9.3	28.400576898269
2	20435	9.4	28.419276612427
2	21066	9.5	28.437972858625
2	21697	9.6	28.456649014884
2	22328	9.7	28.475423445346
2	22959	9.8	28.494112794378
2	23590	9.9	28.512883271268
2	24221	10	28.531576041676
2	24852	10.1	28.550280583424
2	25483	10.2	28.568971889822
2	26114	10.3	28.587726435628
2	26745	10.4	28.606385047138
2	27376	10.5	28.625111216127
2	28007	10.6	28.643840066911
2	28638	10.7	28.662574601884
2	29269	10.8	28.681313257353
2	29900	10.9	28.69998426541
2	30531	11	28.718671134368
2	31162	11.1	28.737377440287
2	31793	11.2	28.756101935956
2	32424	11.3	28.774869581167
2	33055	11.4	28.7936260652
2	33686	11.5	28.812309651282
2	34317	11.6	28.830980677625
2	34948	11.7	28.849663723061
2	35579	11.8	28.868376424466
2	36210	11.9	28.887084309223
2	36841	12	28.905756012382
2	37472	12.1	28.92444723591
2	38103	12.2	28.943187956916
2	38734	12.3	28.961954256372
2	39365	12.4	28.980722068521
2	39996	12.5	28.999445913501
2	40627	12.6	29.018170183089
2	41258	12.7	29.036865771338
2	41889	12.8	29.055633397681
2	42520	12.9	29.074332678989
2	43151	13	29.093065156795
2	43782	13.1	29.111837742234
2	44413	13.2	29.130571205745
2	45044	13.3	29.149303137244
2	45675	13.4	29.168029353484
2	46306	13.5	29.186763416504
2	46937	13.6	29.205510331723
2	47568	13.7	29.22425915034
2	48199	13.8	29.242990534862
2	48830	13.9	29.261723253144
2	49461	14	29.280465435419
2	50092	14.1	29.299219110623
2	50723	14.2	29.317979178505
2	51354	14.3	29.336675781452
2	51985	14.4	29.35533739897
2	52616	14.5	29.374084135975
2	53247	14.6	29.392744562241
2	53878	14.7	29.411414113952
2	54509	14.8	29.43017178592
2	55140	14.9	29.448887956715
2	55771	15	29.467583927851
2	56402	15.1	29.486258158067
2	57033	15.2	29.504968573436
2	57664	15.3	29.523636753071
2	58295	15.4	29.542379719926
2	58926	15.5	29.561102657168
2	59557	15.6	29.579827316538
2	60188	15.7	29.598539625634
2	60819	15.8	29.617217432503
2	61450	15.9	29.635946489008
2	62081	16	29.654709943197
2	62712	16.1	29.673475155449
2	63343	16.2	29.692182896488
2	63974	16.3	29.710920299752
2	64605	16.4	29.729645749043
2	65236	16.5	29.748401118712
2	65867	16.6	29.767106773361
2	66498	16.7	29.785849331514
2	67129	16.8	29.804550647519
2	67760	16.9	29.823276384441
2	68391	17	29.841954810778
2	69022	17.1	29.860619172966
2	69653	17.2	29.879383529053
2	70284	17.3	29.898145001685
2	70915	17.4	29.916883680497
2	71546	17.5	29.935589467616
2	72177	17.6	29.95434465399
2	72808	17.7	29.973076377911
2	73439	17.8	29.991797091155
2	74070	17.9	30.010570405687
2	74701	18	30.029333504979
2	75332	18.1	30.048066161611
2	75963	18.2	30.066804966026
2	76594	18.3	30.085496470671
2	77225	18.4	30.104193829417
2	77856	18.5	30.122971808218
2	78487	18.6	30.141706834118
2	79118	18.7	30.160447665539
2	79749	18.8	30.179208284646
2	80380	18.9	30.197875854559
2	81011	19	30.216602178901
2	81642	19.1	30.235360843694
2	82273	19.2	30.254115586569
2	82904	19.3	30.272862891045
2	83535	19.4	30.291629187504
2	84166	19.5	30.310316699285
2	84797	19.6	30.328976309398
13	164	1.3	6.3853969912416
13	195	1.4	0.973
13	226	1.5	2.2721765846535
13	257	1.6	4.8809644611071
13	288	1.7	3.707528600837
13	319	1.8	5.6903805068652
13	350	1.9	0.98094574321964
13	381	2	4.8941272846486
13	412	2.1	6.351898110831
13	476	2.2	1.8465167166547
13	540	2.3	0.973
13	604	2.4	9.6622923283032
13	668	2.5	0.973
13	732	2.6	3.2646648823793
13	796	2.7	3.9896621375119
13	860	2.8	4.5552098144032
13	924	2.9	6.6967272954403
13	988	3	0.72835671801143
13	1052	3.1	3.5602340098902
13	1161	3.2	6.0247939557043
13	1270	3.3	3.127711463133
13	1379	3.4	3.0147669108271
13	1488	3.5	3.6918311284134
13	1597	3.6	1.4835685711921
13	1706	3.7	7.2743566673704
13	1815	3.8	2.4517298557031
13	1924	3.9	3.8923686707137
13	2033	4	3.5566072048459
13	2142	4.1	1.6962538722453
13	2308	4.2	5.1272536277689
13	2474	4.3	3.1337575137159
13	2640	4.4	0.973
13	2806	4.5	8.3919097209827
13	2972	4.6	0.973
13	3138	4.7	4.1834701123194
13	3304	4.8	1.6073016564006
13	3470	4.9	3.7098806238666
13	3636	5	3.233121768268
13	3802	5.1	5.761917106908
13	4037	5.2	1.6804995303453
13	4272	5.3	7.9086914302769
13	4507	5.4	1.7984893696456
13	4742	5.5	4.8846369365653
13	4977	5.6	0.973
13	5212	5.7	6.3735307852996
13	5447	5.8	5.8322045022619
13	5682	5.9	2.1683965946048
13	5917	6	0.70489733786725
13	6152	6.1	0.973
13	6468	6.2	7.9429502309083
13	6784	6.3	0.81737526909514
13	7100	6.4	6.3839718186963
13	7416	6.5	3.0053881865478
13	7732	6.6	2.2095824885549
13	8048	6.7	3.1209655196235
13	8364	6.8	5.4823530945886
13	8680	6.9	1.317583670022
13	8996	7	2.2678823892992
13	9312	7.1	4.5227923860632
13	9721	7.2	4.1053157752825
13	10130	7.3	0.973
13	10539	7.4	5.7978356235677
13	10948	7.5	5.282092622847
13	11357	7.6	1.6270083978677
13	11766	7.7	4.9121708440114
13	12175	7.8	0.973
13	12584	7.9	7.7517865939265
13	12993	8	1.2068963381717
13	13402	8.1	1.8249053551125
13	13916	8.2	0.973
13	14430	8.3	7.6490443642032
13	14944	8.4	0.973
13	15458	8.5	5.7745620439914
13	15972	8.6	0.973
13	16486	8.7	5.2846293356429
13	17000	8.8	4.8016182113991
13	17514	8.9	2.0490037359773
13	18028	9	2.093796508814
13	18542	9.1	6.3161755896764
13	19173	9.2	0.973
13	19804	9.3	0.91057161175854
13	20435	9.4	4.3425819206544
13	21066	9.5	4.9759706099161
13	21697	9.6	0.973
13	22328	9.7	8.3967379413369
13	22959	9.8	2.9604822620362
13	23590	9.9	2.8990617133066
13	24221	10	1.2790176249681
13	24852	10.1	0.64421126602326
13	25483	10.2	3.6073235060863
13	26114	10.3	6.5982670914991
13	26745	10.4	0.973
13	27376	10.5	5.6566806119771
13	28007	10.6	6.4583036580547
13	28638	10.7	4.9835196619544
13	29269	10.8	2.9768968889315
13	29900	10.9	0.973
13	30531	11	6.7992269423664
13	31162	11.1	0.973
13	31793	11.2	7.7812387085838
13	32424	11.3	2.8176333152842
13	33055	11.4	1.9705536997573
13	33686	11.5	0.82102534816919
13	34317	11.6	1.6422459291286
13	34948	11.7	5.3537223290414
13	35579	11.8	1.6097024135028
13	36210	11.9	3.6710386854535
13	36841	12	0.973
13	37472	12.1	2.5508861390794
13	38103	12.2	5.1626890870337
13	38734	12.3	9.0846380958952
13	39365	12.4	2.3814320176047
13	39996	12.5	0.973
13	40627	12.6	4.5702871926328
13	41258	12.7	0.84902370691136
13	41889	12.8	7.0597549546331
13	42520	12.9	0.973
13	43151	13	1.8349369029749
13	43782	13.1	6.8325436048359
13	44413	13.2	0.973
13	45044	13.3	2.5978063532685
13	45675	13.4	0.973
13	46306	13.5	2.9375696249492
13	46937	13.6	8.1589327976522
13	47568	13.7	4.1989476329399
13	48199	13.8	0.973
13	48830	13.9	3.4154395936918
13	49461	14	1.2554039939511
13	50092	14.1	1.3497436914509
13	50723	14.2	8.3835413264243
13	51354	14.3	0.973
13	51985	14.4	1.4426783086589
13	52616	14.5	9.7144335453605
13	53247	14.6	0.973
13	53878	14.7	6.2771460956813
13	54509	14.8	2.3126980532761
13	55140	14.9	3.6559169173566
13	55771	15	3.9770900343087
13	56402	15.1	0.973
13	57033	15.2	6.367061979043
13	57664	15.3	0.64361417656143
13	58295	15.4	6.7234552435127
13	58926	15.5	0.72062390438725
13	59557	15.6	5.3370044607612
13	60188	15.7	2.5598813878274
13	60819	15.8	0.973
13	61450	15.9	5.4898126161662
13	62081	16	9.1418917054676
13	62712	16.1	0.973
13	63343	16.2	3.2623913382121
13	63974	16.3	6.5583987188265
13	64605	16.4	0.973
13	65236	16.5	5.467193982308
13	65867	16.6	0.973
13	66498	16.7	7.2754031057014
13	67129	16.8	0.973
13	67760	16.9	5.9272083634382
13	68391	17	0.99625420505391
13	69022	17.1	1.8945598021251
13	69653	17.2	8.879442693295
13	70284	17.3	4.8108051429343
13	70915	17.4	0.973
13	71546	17.5	3.5583990894686
13	72177	17.6	7.6404434892102
13	72808	17.7	2.6343543059957
13	73439	17.8	2.3521470064661
13	74070	17.9	3.6787426757696
13	74701	18	0.73279164444277
13	75332	18.1	2.0672351697505
13	75963	18.2	6.341881056069
13	76594	18.3	0.973
13	77225	18.4	3.7514562023393
13	77856	18.5	9.6254820169804
13	78487	18.6	0.58922051943281
13	79118	18.7	3.1726736820271
13	79749	18.8	0.973
13	80380	18.9	0.973
13	81011	19	8.5468149361158
13	81642	19.1	0.973
13	82273	19.2	6.676043986726
13	82904	19.3	1.5341518948608
13	83535	19.4	6.9877332755288
13	84166	19.5	0.973
13	84797	19.6	0.973
13	85428	19.7	11.703543274266
13	85942	19.8	2.3998771534119
13	86456	19.9	0.973
13	86970	20	7.6169316394023
13	87484	20.1	2.430463775113
13	87998	20.2	1.9203888612597
13	88512	20.3	4.9436976660749
13	89026	20.4	0.9100815215994
13	89540	20.5	4.6534046336619
13	90054	20.6	0.973
13	90568	20.7	4.4939086465411
13	91082	20.8	2.5263910800431
13	91596	20.9	1.7773341402305
12	164	1.3	0.84018856913922
12	195	1.4	-0.52468845898868
12	226	1.5	-0.073246848914437
12	257	1.6	0.50602332494915
12	288	1.7	0.24372187190341
12	319	1.8	0.67984365902674
12	350	1.9	-0.36280781927811
12	381	2	0.50265137158942
12	412	2.1	0.81907300164151
12	476	2.2	-0.17336496487477
12	540	2.3	-0.48044278074748
12	604	2.4	1.5384814842876
12	668	2.5	-0.69961136599655
12	732	2.6	0.13747055744204
12	796	2.7	0.29554411118696
12	860	2.8	0.41749047934353
12	924	2.9	0.87988517133752
12	988	3	-0.42167321982408
12	1052	3.1	0.19662681822521
12	1161	3.2	0.72973018469721
12	1270	3.3	0.099037414084044
12	1379	3.4	0.074207154607357
12	1488	3.5	0.22041273521733
12	1597	3.6	-0.25856223560055
12	1706	3.7	0.99206537853807
12	1815	3.8	-0.050879874588823
12	1924	3.9	0.25960619977937
12	2033	4	0.18627590079493
12	2142	4.1	-0.21481942922915
12	2308	4.2	0.52345147087735
12	2474	4.3	0.093499570363775
12	2640	4.4	-0.6108813164504
12	2806	4.5	1.220244041465
12	2972	4.6	-0.58608519316071
12	3138	4.7	0.31792995626901
12	3304	4.8	-0.23550976545749
12	3470	4.9	0.21618500118333
12	3636	5	0.11322844737926
12	3802	5.1	0.65236273046072
12	4037	5.2	-0.22136025368624
12	4272	5.3	1.1042557073548
12	4507	5.4	-0.19809485631946
12	4742	5.5	0.45801604467997
12	4977	5.6	-1.2168328035171
12	5212	5.7	0.77823203137388
12	5447	5.8	0.65832264099139
12	5682	5.9	-0.12062120915825
12	5917	6	-0.43163555550418
12	6152	6.1	-0.80634933854284
12	6468	6.2	1.1094923426725
12	6784	6.3	-0.4075223404579
12	7100	6.4	0.77482329631163
12	7416	6.5	0.056458892601405
12	7732	6.6	-0.11234875218872
12	8048	6.7	0.081134352522696
12	8364	6.8	0.57939597444935
12	8680	6.9	-0.30262614877259
12	8996	7	-0.10066198295576
12	9312	7.1	0.37619898688444
12	9721	7.2	0.28636320993858
12	10130	7.3	-0.79463843317338
12	10539	7.4	0.64552499313528
12	10948	7.5	0.53309732323253
12	11357	7.6	-0.23841328684473
12	11766	7.7	0.45376110373002
12	12175	7.8	-0.51091346653386
12	12584	7.9	1.048239459453
12	12993	8	-0.32832195494784
12	13402	8.1	-0.19762210166348
12	13916	8.2	-0.65716786813692
12	14430	8.3	1.027939717047
12	14944	8.4	-0.56659733892769
12	15458	8.5	0.63279487078738
12	15972	8.6	-0.63778372631159
12	16486	8.7	0.53030480552675
12	17000	8.8	0.42625141130703
12	17514	8.9	-0.15186243804301
12	18028	9	-0.14207751584937
12	18542	9.1	0.74140197461752
12	19173	9.2	-0.56619226145074
12	19804	9.3	-0.39083768334926
12	20435	9.4	0.3306661437335
12	21066	9.5	0.46130546973604
12	21697	9.6	-0.89030266989319
12	22328	9.7	1.1765497392638
12	22959	9.8	0.037206046094589
12	23590	9.9	0.024254528776559
12	24221	10	-0.31460071137847
12	24852	10.1	-0.44734433072872
12	25483	10.2	0.17507542046772
12	26114	10.3	0.79767179505751
12	26745	10.4	-1.2540167429686
12	27376	10.5	0.60473645950875
12	28007	10.6	0.76753458867454
12	28638	10.7	0.45653408500069
12	29269	10.8	0.03768888431722
12	29900	10.9	-1.1902721669557
12	30531	11	0.83777237167158
12	31162	11.1	-0.62758408546323
12	31793	11.2	1.0394954112372
12	32424	11.3	0.0042512078231027
12	33055	11.4	-0.17199793316287
12	33686	11.5	-0.41144939455986
12	34317	11.6	-0.23917423445514
12	34948	11.7	0.53489749752348
12	35579	11.8	-0.24657999814867
12	36210	11.9	0.18371431319451
12	36841	12	-0.75398991759347
12	37472	12.1	-0.047877940170373
12	38103	12.2	0.49712647913221
12	38734	12.3	1.304890982529
12	39365	12.4	-0.088325940908724
12	39996	12.5	-0.49085123547439
12	40627	12.6	0.3675305170745
12	41258	12.7	-0.40636089453251
12	41889	12.8	0.88191901255716
12	42520	12.9	-0.51479791317895
12	43151	13	-0.2011510230588
12	43782	13.1	0.8338672213355
12	44413	13.2	-0.56290537100182
12	45044	13.3	-0.042907963609302
12	45675	13.4	-0.85577401698572
12	46306	13.5	0.030640909365438
12	46937	13.6	1.111897627033
12	47568	13.7	0.28758706710303
12	48199	13.8	-0.54912668699359
12	48830	13.9	0.12665592945059
12	49461	14	-0.32199562972917
12	50092	14.1	-0.30180905937009
12	50723	14.2	1.154973493448
12	51354	14.3	-1.5151277948123
12	51985	14.4	-0.28122117971666
12	52616	14.5	1.4347908670385
12	53247	14.6	-0.90935709532705
12	53878	14.7	0.72188875075533
12	54509	14.8	-0.10233136358273
12	55140	14.9	0.1764294280882
12	55771	15	0.2421076747693
12	56402	15.1	-1.3444862297555
12	57033	15.2	0.74259344744199
12	57664	15.3	-0.44898030746083
12	58295	15.4	0.81412346030035
12	58926	15.5	-0.43333047630426
12	59557	15.6	0.52534577862353
12	60188	15.7	-0.051572863479805
12	60819	15.8	-1.0334757605817
12	61450	15.9	0.56029893876524
12	62081	16	1.3082617064315
12	62712	16.1	-0.89866055233134
12	63343	16.2	0.094327721867984
12	63974	16.3	0.77373920532359
12	64605	16.4	-0.89713237096994
12	65236	16.5	0.54994101119298
12	65867	16.6	-0.70048019985894
12	66498	16.7	0.92315493076367
12	67129	16.8	-1.3105879074519
12	67760	16.9	0.64821021638274
12	68391	17	-0.3760668728237
12	69022	17.1	-0.18857566595422
12	69653	17.2	1.2551533013065
12	70284	17.3	0.41027950181689
12	70915	17.4	-1.3378758918318
12	71546	17.5	0.15622696734127
12	72177	17.6	0.99667218505228
12	72808	17.7	-0.038879154694982
12	73439	17.8	-0.097000751224421
12	74070	17.9	0.17689388685572
12	74701	18	-0.43195199877747
12	75332	18.1	-0.15494841699173
12	75963	18.2	0.72676881278998
12	76594	18.3	-1.2080453825742
12	77225	18.4	0.19565960924758
12	77856	18.5	1.4014720867074
12	78487	18.6	-0.46221034919927
12	79118	18.7	0.071711207035285
12	79749	18.8	-0.74181572146884
12	80380	18.9	-0.49336753059496
12	81011	19	1.1830128885963
12	81642	19.1	-0.95806372929292
12	82273	19.2	0.79739770457039
12	82904	19.3	-0.26602152339244
12	83535	19.4	0.85740489440088
12	84166	19.5	-1.6348987146239
12	84797	19.6	-0.50999984594849
12	85428	19.7	1.8341770648497
12	85942	19.8	-0.087966193453717
12	86456	19.9	-0.81565593883862
12	86970	20	0.9890663589351
12	87484	20.1	-0.081908591976401
12	87998	20.2	-0.18685886783061
12	88512	20.3	0.43602064922453
12	89026	20.4	-0.39586063507013
12	89540	20.5	0.37621517756488
12	90054	20.6	-0.72320521245711
12	90568	20.7	0.34519476904535
12	91082	20.8	-0.06145834722556
12	91596	20.9	-0.21591294312383
11	133	1.2	18.566314861134
11	164	1.3	18.650333718047
11	195	1.4	18.597864872149
11	226	1.5	18.590540187257
11	257	1.6	18.641142519752
11	288	1.7	18.665514706942
11	319	1.8	18.733499072845
11	350	1.9	18.697218290917
11	381	2	18.747483428076
11	412	2.1	18.82939072824
11	476	2.2	18.812054231753
11	540	2.3	18.764009953678
11	604	2.4	18.917858102107
11	668	2.5	18.847896965507
11	732	2.6	18.861644021251
11	796	2.7	18.89119843237
11	860	2.8	18.932947480305
11	924	2.9	19.020935997438
11	988	3	18.978768675456
11	1052	3.1	18.998431357278
11	1161	3.2	19.071404375748
11	1270	3.3	19.081308117157
11	1379	3.4	19.088728832617
11	1488	3.5	19.110770106139
11	1597	3.6	19.084913882579
11	1706	3.7	19.184120420433
11	1815	3.8	19.179032432974
11	1924	3.9	19.204993052952
11	2033	4	19.223620643031
11	2142	4.1	19.202138700108
11	2308	4.2	19.254483847196
11	2474	4.3	19.263833804232
11	2640	4.4	19.202745672587
11	2806	4.5	19.324770076734
11	2972	4.6	19.266161557418
11	3138	4.7	19.297954553045
11	3304	4.8	19.274403576499
11	3470	4.9	19.296022076617
11	3636	5	19.307344921355
11	3802	5.1	19.372581194401
11	4037	5.2	19.350445169033
11	4272	5.3	19.460870739768
11	4507	5.4	19.441061254136
11	4742	5.5	19.486862858604
11	4977	5.6	19.365179578253
11	5212	5.7	19.44300278139
11	5447	5.8	19.508835045489
11	5682	5.9	19.496772924573
11	5917	6	19.453609369023
11	6152	6.1	19.372974435169
11	6468	6.2	19.483923669436
11	6784	6.3	19.44317143539
11	7100	6.4	19.520653765021
11	7416	6.5	19.526299654281
11	7732	6.6	19.515064779062
11	8048	6.7	19.523178214315
11	8364	6.8	19.58111781176
11	8680	6.9	19.550855196882
11	8996	7	19.540788998587
11	9312	7.1	19.578408897275
11	9721	7.2	19.607045218269
11	10130	7.3	19.527581374952
11	10539	7.4	19.592133874265
11	10948	7.5	19.645443606589
11	11357	7.6	19.621602277904
11	11766	7.7	19.666978388277
11	12175	7.8	19.615887041624
11	12584	7.9	19.720710987569
11	12993	8	19.687878792074
11	13402	8.1	19.668116581908
11	13916	8.2	19.602399795094
11	14430	8.3	19.705193766799
11	14944	8.4	19.648534032906
11	15458	8.5	19.711813519985
11	15972	8.6	19.648035147354
11	16486	8.7	19.701065627906
11	17000	8.8	19.743690769037
11	17514	8.9	19.728504525233
11	18028	9	19.714296773648
11	18542	9.1	19.78843697111
11	19173	9.2	19.731817744964
11	19804	9.3	19.69273397663
11	20435	9.4	19.725800591003
11	21066	9.5	19.771931137977
11	21697	9.6	19.682900870987
11	22328	9.7	19.800555844914
11	22959	9.8	19.804276449523
11	23590	9.9	19.806701902401
11	24221	10	19.775241831263
11	24852	10.1	19.73050739819
11	25483	10.2	19.748014940237
11	26114	10.3	19.827782119743
11	26745	10.4	19.702380445446
11	27376	10.5	19.762854091397
11	28007	10.6	19.839607550264
11	28638	10.7	19.885260958764
11	29269	10.8	19.889029847196
11	29900	10.9	19.7700026305
11	30531	11	19.853779867667
11	31162	11.1	19.791021459121
11	31793	11.2	19.894971000245
11	32424	11.3	19.895396121027
11	33055	11.4	19.878196327711
11	33686	11.5	19.837051388255
11	34317	11.6	19.813133964809
11	34948	11.7	19.866623714562
11	35579	11.8	19.841965714747
11	36210	11.9	19.860337146066
11	36841	12	19.784938154307
11	37472	12.1	19.78015036029
11	38103	12.2	19.829863008203
11	38734	12.3	19.960352106456
11	39365	12.4	19.951519512365
11	39996	12.5	19.902434388818
11	40627	12.6	19.939187440525
11	41258	12.7	19.898551351072
11	41889	12.8	19.986743252328
11	42520	12.9	19.93526346101
11	43151	13	19.915148358704
11	43782	13.1	19.998535080837
11	44413	13.2	19.942244543737
11	45044	13.3	19.937953747376
11	45675	13.4	19.852376345678
11	46306	13.5	19.855440436614
11	46937	13.6	19.966630199317
11	47568	13.7	19.995388906028
11	48199	13.8	19.940476237328
11	48830	13.9	19.953141830273
11	49461	14	19.920942267301
11	50092	14.1	19.890761361364
11	50723	14.2	20.006258710708
11	51354	14.3	19.854745931227
11	51985	14.4	19.826623813255
11	52616	14.5	19.970102899959
11	53247	14.6	19.879167190427
11	53878	14.7	19.951356065502
11	54509	14.8	19.941122929144
11	55140	14.9	19.958765871953
11	55771	15	19.98297663943
11	56402	15.1	19.848528016454
11	57033	15.2	19.922787361198
11	57664	15.3	19.877889330452
11	58295	15.4	19.959301676482
11	58926	15.5	19.915968628852
11	59557	15.6	19.968503206714
11	60188	15.7	19.963345920366
11	60819	15.8	19.859998344308
11	61450	15.9	19.916028238185
11	62081	16	20.046854408828
11	62712	16.1	19.956988353595
11	63343	16.2	19.966421125781
11	63974	16.3	20.043795046314
11	64605	16.4	19.954081809217
11	65236	16.5	20.009075910336
11	65867	16.6	19.93902789035
11	66498	16.7	20.031343383426
11	67129	16.8	19.900284592681
11	67760	16.9	19.96510561432
11	68391	17	19.927498927037
11	69022	17.1	19.908641360442
11	69653	17.2	20.034156690572
11	70284	17.3	20.075184640754
11	70915	17.4	19.941397051571
11	71546	17.5	19.957019748305
11	72177	17.6	20.05668696681
11	72808	17.7	20.052799051341
11	73439	17.8	20.043098976218
11	74070	17.9	20.060788364904
11	74701	18	20.017593165026
11	75332	18.1	20.002098323327
11	75963	18.2	20.074775204606
11	76594	18.3	19.953970666349
11	77225	18.4	19.973536627273
11	77856	18.5	20.113683835944
11	78487	18.6	20.067462801024
11	79118	18.7	20.074633921728
11	79749	18.8	20.000452349581
11	80380	18.9	19.951115596521
11	81011	19	20.069416885381
11	81642	19.1	19.973610512452
11	82273	19.2	20.053350282909
11	82904	19.3	20.026748130569
11	83535	19.4	20.11248862001
11	84166	19.5	19.948998748547
11	84797	19.6	19.897998763952
11	85428	19.7	20.081416470437
11	85942	19.8	20.072619851092
11	86456	19.9	19.991054257208
11	86970	20	20.089960893102
11	87484	20.1	20.081770033904
11	87998	20.2	20.063084147121
11	88512	20.3	20.106686212043
11	89026	20.4	20.067100148536
11	89540	20.5	20.104721666293
11	90054	20.6	20.032401145047
11	90568	20.7	20.066920621952
11	91082	20.8	20.060774787229
11	91596	20.9	20.039183492917
10	102	1.1	416.34012864494
10	133	1.2	416.34012864494
10	164	1.3	414.48354399142
10	195	1.4	412.61855766415
10	226	1.5	410.75881808912
10	257	1.6	408.89981096409
10	288	1.7	407.03574373347
10	319	1.8	405.16923934559
10	350	1.9	403.29593669262
10	381	2	401.42626202632
10	412	2.1	399.5515609731
10	476	2.2	397.66866939647
10	540	2.3	395.78751142576
10	604	2.4	393.91115776166
10	668	2.5	392.0194196708
10	732	2.6	390.13467751712
10	796	2.7	388.24856069255
10	860	2.8	386.35948850141
10	924	2.9	384.46624151079
10	988	3	382.5641958904
10	1052	3.1	380.66636689585
10	1161	3.2	378.76657168271
10	1270	3.3	376.8594793518
10	1379	3.4	374.95139667172
10	1488	3.5	373.04257193882
10	1597	3.6	371.13154313417
10	1706	3.7	369.22309988664
10	1815	3.8	367.30473623558
10	1924	3.9	365.38688137043
10	2033	4	363.46643050877
10	2142	4.1	361.54411693508
10	2308	4.2	359.6239515015
10	2474	4.3	357.69855168525
10	2640	4.4	355.77221689688
10	2806	4.5	353.85199076759
10	2972	4.6	351.91956250567
10	3138	4.7	349.99299494786
10	3304	4.8	348.06324817068
10	3470	4.9	346.13585643174
10	3636	5	344.20630289733
10	3802	5.1	342.275617107
10	4037	5.2	340.33840785392
10	4272	5.3	338.40341214755
10	4507	5.4	336.45737416264
10	4742	5.5	334.51331707633
10	4977	5.6	332.5646799451
10	5212	5.7	330.62821083497
10	5447	5.8	328.68395960083
10	5682	5.9	326.73312530634
10	5917	6	324.78349719351
10	6152	6.1	322.83818532736
10	6468	6.2	320.9009367512
10	6784	6.3	318.95259353147
10	7100	6.4	317.00832543236
10	7416	6.5	315.05630929573
10	7732	6.6	313.10372858441
10	8048	6.7	311.15227133227
10	8364	6.8	309.20000275708
10	8680	6.9	307.24194036829
10	8996	7	305.28690416465
10	9312	7.1	303.33287455545
10	9721	7.2	301.37508305128
10	10130	7.3	299.41442798724
10	10539	7.4	297.46171910709
10	10948	7.5	295.50255513984
10	11357	7.6	293.53806033382
10	11766	7.7	291.57594960054
10	12175	7.8	289.60930137068
10	12584	7.9	287.64776214661
10	12993	8	285.67574079235
10	13402	8.1	283.70700257483
10	13916	8.2	281.74024052848
10	14430	8.3	279.78004999504
10	14944	8.4	277.80958032372
10	15458	8.5	275.84477648287
10	15972	8.6	273.87364485293
10	16486	8.7	271.90889089938
10	17000	8.8	269.93883403154
10	17514	8.9	267.9645147571
10	18028	9	265.99171406874
10	18542	9.1	264.0203341197
10	19173	9.2	262.04154033793
10	19804	9.3	260.06840833595
10	20435	9.4	258.09918461222
10	21066	9.5	256.12665431046
10	21697	9.6	254.14951107037
10	22328	9.7	252.1812706324
10	22959	9.8	250.20126499382
10	23590	9.9	248.22088730416
10	24221	10	246.24026707533
10	24852	10.1	244.26279277426
10	25483	10.2	242.28979180365
10	26114	10.3	240.31504012301
10	26745	10.4	238.33231192562
10	27376	10.5	236.36212357934
10	28007	10.6	234.38588802101
10	28638	10.7	232.40197731039
10	29269	10.8	230.41350137409
10	29900	10.9	228.42464855845
10	30531	11	226.44769816424
10	31162	11.1	224.46237025763
10	31793	11.2	222.48331803358
10	32424	11.3	220.49387111762
10	33055	11.4	218.50438169066
10	33686	11.5	216.51661219964
10	34317	11.6	214.53295709878
10	34948	11.7	212.55169367993
10	35579	11.8	210.56508142104
10	36210	11.9	208.58093489993
10	36841	12	206.59495128202
10	37472	12.1	204.61650737311
10	38103	12.2	202.63854223151
10	38734	12.3	200.65560595053
10	39365	12.4	198.65962108887
10	39996	12.5	196.66451946434
10	40627	12.6	194.67432622835
10	41258	12.7	192.6804577799
10	41889	12.8	190.69065283789
10	42520	12.9	188.69202892821
10	43151	13	186.69855286781
10	43782	13.1	184.7070882669
10	44413	13.2	182.70728520412
10	45044	13.3	180.71311105306
10	45675	13.4	178.71936597081
10	46306	13.5	176.73417841286
10	46937	13.6	174.74868445355
10	47568	13.7	172.75207179844
10	48199	13.8	170.7525833452
10	48830	13.9	168.75858602032
10	49461	14	166.76332216809
10	50092	14.1	164.77127819094
10	50723	14.2	162.78225222825
10	51354	14.3	160.78167682196
10	51985	14.4	158.79625231144
10	52616	14.5	156.81363994178
10	53247	14.6	154.81668002536
10	53878	14.7	152.82881345052
10	54509	14.8	150.83372817027
10	55140	14.9	148.83966617783
10	55771	15	146.84383993562
10	56402	15.1	144.84559267774
10	57033	15.2	142.86078994301
10	57664	15.3	140.86856146112
10	58295	15.4	138.88082266905
10	58926	15.5	136.88494284774
10	59557	15.6	134.89339622188
10	60188	15.7	132.89659627076
10	60819	15.8	130.90031203526
10	61450	15.9	128.91436229668
10	62081	16	126.92280971004
10	62712	16.1	124.91817483634
10	63343	16.2	122.92252634149
10	63974	16.3	120.9259345932
10	64605	16.4	118.92160564804
10	65236	16.5	116.92624780029
10	65867	16.6	114.92539068114
10	66498	16.7	112.9315381873
10	67129	16.8	110.92845437702
10	67760	16.9	108.93847611522
10	68391	17	106.94201591477
10	69022	17.1	104.94931628818
10	69653	17.2	102.95850237068
10	70284	17.3	100.95513723678
10	70915	17.4	98.947669411349
10	71546	17.5	96.953580007365
10	72177	17.6	94.957928373115
10	72808	17.7	92.95231026842
10	73439	17.8	90.947080945465
10	74070	17.9	88.942821605554
10	74701	18	86.936793371396
10	75332	18.1	84.935084548267
10	75963	18.2	82.934925170223
10	76594	18.3	80.927498287375
10	77225	18.4	78.93215155363
10	77856	18.5	76.934848273146
10	78487	18.6	74.92353062531
10	79118	18.7	72.916834964375
10	79749	18.8	70.909422209458
10	80380	18.9	68.909427424637
10	81011	19	66.914366190673
10	81642	19.1	64.907475126231
10	82273	19.2	62.910164457416
10	82904	19.3	60.904880012695
10	83535	19.4	58.902255716105
10	84166	19.5	56.891057586847
10	84797	19.6	54.89620803234
10	85428	19.7	52.906458347648
10	85942	19.8	50.898367354969
10	86456	19.9	48.891156002036
10	86970	20	46.892101002746
10	87484	20.1	44.883155589354
10	87998	20.2	42.87502924122
10	88512	20.3	40.868771434631
10	89026	20.4	38.858153531533
10	89540	20.5	36.851494134932
10	90054	20.6	34.841072681454
10	90568	20.7	32.837883097676
10	91082	20.8	30.831241653281
10	91596	20.9	28.825214776855
9	102	1.1	26.697598627787
9	133	1.2	26.697598627787
9	164	1.3	26.714926688777
9	195	1.4	26.732333165105
9	226	1.5	26.749690671923
9	257	1.6	26.767041342565
9	288	1.7	26.784439240689
9	319	1.8	26.801859885532
9	350	1.9	26.81934398062
9	381	2	26.836794214622
9	412	2.1	26.854291361399
9	476	2.2	26.871864952786
9	540	2.3	26.88942236391
9	604	2.4	26.906934934999
9	668	2.5	26.924591093555
9	732	2.6	26.942181956932
9	796	2.7	26.959785650525
9	860	2.8	26.977416927439
9	924	2.9	26.995087169009
9	988	3	27.012839530826
9	1052	3.1	27.030552537612
9	1161	3.2	27.048283895704
9	1270	3.3	27.066083359984
9	1379	3.4	27.083892067489
9	1488	3.5	27.101707700796
9	1597	3.6	27.119543905364
9	1706	3.7	27.137355978154
9	1815	3.8	27.155260641042
9	1924	3.9	27.173160555279
9	2033	4	27.19108469873
9	2142	4.1	27.20902622743
9	2308	4.2	27.226947706895
9	2474	4.3	27.244918040422
9	2640	4.4	27.262897100324
9	2806	4.5	27.28081914628
9	2972	4.6	27.298855078397
9	3138	4.7	27.316836310806
9	3304	4.8	27.334847215822
9	3470	4.9	27.352836140561
9	3636	5	27.370845241984
9	3802	5.1	27.388864911092
9	4037	5.2	27.406945465632
9	4272	5.3	27.425005360477
9	4507	5.4	27.443168316218
9	4742	5.5	27.461312783638
9	4977	5.6	27.47949999799
9	5212	5.7	27.497573644554
9	5447	5.8	27.515719924014
9	5682	5.9	27.533927645149
9	5917	6	27.55212410863
9	6152	6.1	27.570280287286
9	6468	6.2	27.58836120884
9	6784	6.3	27.606545680028
9	7100	6.4	27.624692116894
9	7416	6.5	27.642910868516
9	7732	6.6	27.661134889483
9	8048	6.7	27.679348424868
9	8364	6.8	27.697569532575
9	8680	6.9	27.715844715681
9	8996	7	27.734091654493
9	9312	7.1	27.752329198458
9	9721	7.2	27.770601853317
9	10130	7.3	27.788901234637
9	10539	7.4	27.807126451842
9	10948	7.5	27.82541191631
9	11357	7.6	27.843747135093
9	11766	7.7	27.862060102611
9	12175	7.8	27.880415419944
9	12584	7.9	27.898723053395
9	12993	8	27.917128519709
9	13402	8.1	27.935503343524
9	13916	8.2	27.953859723141
9	14430	8.3	27.972154768858
9	14944	8.4	27.99054575285
9	15458	8.5	28.008883855948
9	15972	8.6	28.027281018198
9	16486	8.7	28.045618655683
9	17000	8.8	28.064005786856
9	17514	8.9	28.082432700347
9	18028	9	28.10084544042
9	18542	9.1	28.119244920307
9	19173	9.2	28.137713595716
9	19804	9.3	28.156129428038
9	20435	9.4	28.174508783227
9	21066	9.5	28.192918999701
9	21697	9.6	28.21137227011
9	22328	9.7	28.229742447999
9	22959	9.8	28.248222434031
9	23590	9.9	28.266705892527
9	24221	10	28.285191614715
9	24852	10.1	28.303647975015
9	25483	10.2	28.322062584382
9	26114	10.3	28.34049353365
9	26745	10.4	28.35899893014
9	27376	10.5	28.37738728844
9	28007	10.6	28.395832087184
9	28638	10.7	28.414348520424
9	29269	10.8	28.432907562283
9	29900	10.9	28.45147012167
9	30531	11	28.469921592191
9	31162	11.1	28.488451252546
9	31793	11.2	28.506922340075
9	32424	11.3	28.525490444378
9	33055	11.4	28.54405894545
9	33686	11.5	28.562611393843
9	34317	11.6	28.581125441401
9	34948	11.7	28.599617166673
9	35579	11.8	28.618158814273
9	36210	11.9	28.636677448403
9	36841	12	28.655213228707
9	37472	12.1	28.673678638649
9	38103	12.2	28.692139580111
9	38734	12.3	28.710646918707
9	39365	12.4	28.729276043617
9	39996	12.5	28.747896925011
9	40627	12.6	28.766471994943
9	41258	12.7	28.785081366734
9	41889	12.8	28.803652812602
9	42520	12.9	28.822306568538
9	43151	13	28.840912278054
9	43782	13.1	28.859499214016
9	44413	13.2	28.878163975342
9	45044	13.3	28.896776200347
9	45675	13.4	28.915384420725
9	46306	13.5	28.933912771164
9	46937	13.6	28.952443981338
9	47568	13.7	28.971078965633
9	48199	13.8	28.989740790613
9	48830	13.9	29.008351365247
9	49461	14	29.02697376076
9	50092	14.1	29.045566104214
9	50723	14.2	29.064130279634
9	51354	14.3	29.082802249473
9	51985	14.4	29.101332811461
9	52616	14.5	29.119837126896
9	53247	14.6	29.138475352285
9	53878	14.7	29.157028706791
9	54509	14.8	29.175649435638
9	55140	14.9	29.194260613834
9	55771	15	29.212888258301
9	56402	15.1	29.231538498833
9	57033	15.2	29.250063257601
9	57664	15.3	29.268657323093
9	58295	15.4	29.287209484965
9	58926	15.5	29.305837629502
9	59557	15.6	29.324425331027
9	60188	15.7	29.343062063411
9	60819	15.8	29.361693982467
9	61450	15.9	29.380229446566
9	62081	16	29.398817203725
9	62712	16.1	29.41752706179
9	63343	16.2	29.436153047288
9	63974	16.3	29.454787836453
9	64605	16.4	29.473494839195
9	65236	16.5	29.492118111997
9	65867	16.6	29.510792711146
9	66498	16.7	29.529401934029
9	67129	16.8	29.548097315554
9	67760	16.9	29.566670379067
9	68391	17	29.585303940457
9	69022	17.1	29.603902403284
9	69653	17.2	29.622483266222
9	70284	17.3	29.641181273425
9	70915	17.4	29.659917572278
9	71546	17.5	29.678529006313
9	72177	17.6	29.697155021112
9	72808	17.7	29.715874055967
9	73439	17.8	29.734589462205
9	74070	17.9	29.7532958153
9	74701	18	29.772018678016
9	75332	18.1	29.790701226374
9	75963	18.2	29.809369313297
9	76594	18.3	29.82810523002
9	77225	18.4	29.846728399091
9	77856	18.5	29.865369829199
9	78487	18.6	29.884142059598
9	79118	18.7	29.902871151608
9	79749	18.8	29.921606936471
9	80380	18.9	29.940273487195
9	81011	19	29.958893991611
9	81642	19.1	29.977624907381
9	82273	19.2	29.996266406446
9	82904	19.3	30.014982327152
9	83535	19.4	30.033673419899
9	84166	19.5	30.052444534795
9	84797	19.6	30.071063063543
9	85428	19.7	30.089633993678
9	85942	19.8	30.108376108737
9	86456	19.9	30.127110013855
9	86970	20	30.14576779328
9	87484	20.1	30.164517882903
9	87998	20.2	30.183260327946
9	88512	20.3	30.20198533333
9	89026	20.4	30.220751032801
9	89540	20.5	30.239479786345
9	90054	20.6	30.258243652293
9	90568	20.7	30.276940021034
9	91082	20.8	30.295668607025
9	91596	20.9	30.314391457068
20	540	2.3	0.973
20	604	2.4	2.2386923692104
20	668	2.5	3.261192532421
20	732	2.6	4.5729582545235
20	796	2.7	5.3639250763293
20	860	2.8	0.973
20	924	2.9	0.973
20	988	3	8.1143890934944
20	1052	3.1	1.8291479738977
20	1161	3.2	1.619332413678
20	1270	3.3	5.5892199614929
20	1379	3.4	0.973
20	1488	3.5	0.73554913338781
20	1597	3.6	6.4997760762981
20	1706	3.7	0.6967132758346
20	1815	3.8	3.0128573432203
20	1924	3.9	5.7015695492156
20	2033	4	2.165616568834
20	2142	4.1	1.2211004812695
20	2308	4.2	0.973
20	2474	4.3	7.8523989080989
20	2640	4.4	1.2334652161641
20	2806	4.5	4.4379678227984
20	2972	4.6	1.8310090164275
20	3138	4.7	2.5013160714032
20	3304	4.8	1.2246198062112
20	3470	4.9	0.59775467656906
20	3636	5	8.6337544003009
20	3802	5.1	2.9363377748119
20	4037	5.2	1.2102094485925
20	4272	5.3	2.081773450866
20	4507	5.4	1.8644511109605
20	4742	5.5	5.8086991816517
20	4977	5.6	1.4133154944852
20	5212	5.7	0.973
20	5447	5.8	3.6359982439746
20	5682	5.9	6.5003353362764
20	5917	6	0.973
20	6152	6.1	3.8197884231237
20	6468	6.2	0.83779996213741
20	6784	6.3	4.023752361982
20	7100	6.4	2.9698368744414
20	7416	6.5	2.7113420388141
20	7732	6.6	5.7361138863212
20	8048	6.7	4.1646377709235
20	8364	6.8	0.973
20	8680	6.9	3.3626946856989
20	8996	7	4.5002310330943
20	9312	7.1	0.973
20	9721	7.2	3.3828292866296
20	10130	7.3	3.395112025109
20	10539	7.4	6.3039631802072
20	10948	7.5	0.973
20	11357	7.6	3.5080845902677
20	11766	7.7	1.0708115264868
20	12175	7.8	4.3582558479145
20	12584	7.9	6.1653861991641
20	12993	8	1.9115954124493
20	13402	8.1	3.96715032121
20	13916	8.2	2.1820020153943
20	14430	8.3	2.545413202462
20	14944	8.4	1.2031443168187
20	15458	8.5	6.0551524699424
20	15972	8.6	0.973
20	16486	8.7	3.8540741925173
20	17000	8.8	2.8089440950672
20	17514	8.9	3.6818383917909
20	18028	9	4.8499103854727
20	18542	9.1	0.973
20	19173	9.2	7.2257523890495
20	19804	9.3	1.7508155158496
20	20435	9.4	0.973
20	21066	9.5	5.7660072965207
20	21697	9.6	3.0799732351562
20	22328	9.7	4.5461160550871
20	22959	9.8	1.8373031331332
20	23590	9.9	0.973
20	24221	10	1.6079157486421
20	24852	10.1	2.9898110269061
20	25483	10.2	6.9561075925237
20	26114	10.3	3.7423020602361
20	26745	10.4	1.4390490773598
20	27376	10.5	3.7364152874474
20	28007	10.6	0.973
20	28638	10.7	7.072435260498
20	29269	10.8	0.973
20	29900	10.9	6.1333759167712
20	30531	11	2.6703040735672
20	31162	11.1	1.6556729161574
20	31793	11.2	4.5606218745465
20	32424	11.3	0.973
20	33055	11.4	5.3818970613301
20	33686	11.5	4.6830806650091
20	34317	11.6	0.973
20	34948	11.7	2.5940201368421
20	35579	11.8	5.9409613902056
20	36210	11.9	1.1172718267911
20	36841	12	1.3060443417568
20	37472	12.1	6.2242947156807
20	38103	12.2	0.973
20	38734	12.3	2.4937711876914
20	39365	12.4	8.1632000891999
20	39996	12.5	0.973
20	40627	12.6	6.3311960350731
20	41258	12.7	2.4910499451566
20	41889	12.8	5.5968801049353
20	42520	12.9	1.3325373119155
20	43151	13	0.973
20	43782	13.1	5.8637657805612
20	44413	13.2	4.3944070190742
20	45044	13.3	1.675849617409
20	45675	13.4	3.2251141465558
20	46306	13.5	2.9013827463237
20	46937	13.6	3.1537524916993
20	47568	13.7	3.225523018223
20	48199	13.8	2.581815268544
20	48830	13.9	3.4627566307937
20	49461	14	0.74574413795557
20	50092	14.1	1.2593342056411
20	50723	14.2	7.1153462513931
20	51354	14.3	0.973
20	51985	14.4	4.8993297684813
20	52616	14.5	2.8472961648437
20	53247	14.6	2.5829017818829
20	53878	14.7	0.973
20	54509	14.8	7.9933205429412
20	55140	14.9	0.973
20	55771	15	3.8697538946402
20	56402	15.1	3.9005558635967
20	57033	15.2	5.0281081324225
20	57664	15.3	2.2549353538329
20	58295	15.4	3.5452400408999
20	58926	15.5	2.7433480089482
20	59557	15.6	0.973
20	60188	15.7	7.240746618291
20	60819	15.8	0.973
20	61450	15.9	0.91196944435164
20	62081	16	2.8299728640117
20	62712	16.1	6.7258583809085
20	63343	16.2	3.7099836439538
20	63974	16.3	2.2792531597727
20	64605	16.4	0.973
20	65236	16.5	1.195951078299
20	65867	16.6	8.0132808612829
20	66498	16.7	0.91904183271202
20	67129	16.8	2.9562817392638
20	67760	16.9	3.537383827984
20	68391	17	2.7722082928739
20	69022	17.1	0.973
20	69653	17.2	8.0436539016264
20	70284	17.3	0.973
20	70915	17.4	3.5086790340149
20	71546	17.5	7.2403768590969
20	72177	17.6	0.62368107261144
20	72808	17.7	5.5995387229881
20	73439	17.8	0.973
20	74070	17.9	2.9749094147287
20	74701	18	2.8287855985765
20	75332	18.1	1.2234292441972
20	75963	18.2	4.3840597700625
20	76594	18.3	1.5587436818574
20	77225	18.4	1.1798510207831
20	77856	18.5	5.9827639787202
20	78487	18.6	2.7741946613255
20	79118	18.7	4.5519589358616
20	79749	18.8	2.4385413693203
20	80380	18.9	2.5929153006216
20	81011	19	0.973
20	81642	19.1	2.0165435489723
20	82273	19.2	5.1932814511096
20	82904	19.3	1.6849312698217
20	83535	19.4	6.8331808256881
20	84166	19.5	2.6135477948236
20	84797	19.6	1.4487232755478
20	85428	19.7	0.973
20	85942	19.8	2.9318912905512
20	86456	19.9	3.3443434410743
20	86970	20	2.7087035245965
20	87484	20.1	3.1016300451202
20	87998	20.2	2.6187174953485
20	88512	20.3	7.2365920755496
20	89026	20.4	2.8541813899977
20	89540	20.5	1.5137691598525
20	90054	20.6	2.147598989985
20	90568	20.7	5.2553820783875
20	91082	20.8	0.973
20	91596	20.9	4.9381115329909
20	92110	21	4.4722610678953
20	92519	21.1	0.973
20	92928	21.2	7.0015898439135
20	93337	21.3	0.973
20	93746	21.4	2.0335077084763
20	94155	21.5	7.2536606975754
20	94564	21.6	0.973
19	540	2.3	-0.53288978538475
19	604	2.4	-0.11950964243152
19	668	2.5	0.092207293398694
19	732	2.6	0.36228540835435
19	796	2.7	0.52286397374701
19	860	2.8	-0.60286897772457
19	924	2.9	-0.47144386558792
19	988	3	1.0903897058451
19	1052	3.1	-0.20624240648466
19	1161	3.2	-0.24907314190642
19	1270	3.3	0.56856869931799
19	1379	3.4	-0.77129770177418
19	1488	3.5	-0.43114805866498
19	1597	3.6	0.75951222518924
19	1706	3.7	-0.4395602813689
19	1815	3.8	0.040123829385266
19	1924	3.9	0.59329939449672
19	2033	4	-0.13655952438711
19	2142	4.1	-0.3311989541864
19	2308	4.2	-0.50537824130153
19	2474	4.3	1.0369316855213
19	2640	4.4	-0.32897679989691
19	2806	4.5	0.33201870198827
19	2972	4.6	-0.20570180576762
19	3138	4.7	-0.066980447247609
19	3304	4.8	-0.33035720579793
19	3470	4.9	-0.45969738354906
19	3636	5	1.1969682039926
19	3802	5.1	0.021484975144261
19	4037	5.2	-0.33403813343028
19	4272	5.3	-0.1535596258007
19	4507	5.4	-0.19803999811412
19	4742	5.5	0.61445922520942
19	4977	5.6	-0.29201698363757
19	5212	5.7	-0.51708571577912
19	5447	5.8	0.16875854427926
19	5682	5.9	0.75636268621309
19	5917	6	-0.94964809985829
19	6152	6.1	0.20674768991302
19	6468	6.2	-0.41001622341575
19	6784	6.3	0.24969769935126
19	7100	6.4	0.031252260366443
19	7416	6.5	-0.02222026861272
19	7732	6.6	0.60059813889673
19	8048	6.7	0.27474176925608
19	8364	6.8	-0.47354973300827
19	8680	6.9	0.11073386764622
19	8996	7	0.34405440429691
19	9312	7.1	-1.1217979558976
19	9721	7.2	0.11745838844217
19	10130	7.3	0.11953850144057
19	10539	7.4	0.71727287713436
19	10948	7.5	-0.83827383765019
19	11357	7.6	0.14285724421498
19	11766	7.7	-0.36152056152932
19	12175	7.8	0.31919023548252
19	12584	7.9	0.68899224719502
19	12993	8	-0.18896169906949
19	13402	8.1	0.23485477867069
19	13916	8.2	-0.13333889076019
19	14430	8.3	-0.058087199996244
19	14944	8.4	-0.33491709721275
19	15458	8.5	0.66500768021218
19	15972	8.6	-0.72751738373192
19	16486	8.7	0.21314940357115
19	17000	8.8	-0.0030131190549554
19	17514	8.9	0.17679672220257
19	18028	9	0.41595033274497
19	18542	9.1	-1.2385572002269
19	19173	9.2	0.90850501670502
19	19804	9.3	-0.22196696572937
19	20435	9.4	-0.57092117695138
19	21066	9.5	0.60813466676045
19	21697	9.6	0.0525810593739
19	22328	9.7	0.35384739036672
19	22959	9.8	-0.20462824518326
19	23590	9.9	-0.70762137300335
19	24221	10	-0.2500448924955
19	24852	10.1	0.0366292075487
19	25483	10.2	0.8531880990602
19	26114	10.3	0.18834325121716
19	26745	10.4	-0.28657686596272
19	27376	10.5	0.18754785279743
19	28007	10.6	-0.88691001622937
19	28638	10.7	0.87661776340102
19	29269	10.8	-0.69985058940947
19	29900	10.9	0.68277759694027
19	30531	11	-0.032448898139386
19	31162	11.1	-0.24155645864084
19	31793	11.2	0.35748648159206
19	32424	11.3	-0.77513357363642
19	33055	11.4	0.5285211852053
19	33686	11.5	0.38206526297145
19	34317	11.6	-0.73919793635142
19	34948	11.7	-0.04656895217483
19	35579	11.8	0.64254010492004
19	36210	11.9	-0.35291498270819
19	36841	12	-0.31332352932075
19	37472	12.1	0.70080820363945
19	38103	12.2	-0.90633896745274
19	38734	12.3	-0.066457388340488
19	39365	12.4	1.099969990924
19	39996	12.5	-1.1651507038623
19	40627	12.6	0.72504019171465
19	41258	12.7	-0.068773772614072
19	41889	12.8	0.57012323148083
19	42520	12.9	-0.30886066101957
19	43151	13	-0.93738453381228
19	43782	13.1	0.6291361362906
19	44413	13.2	0.32355274211149
19	45044	13.3	-0.23747147945684
19	45675	13.4	0.08260645605624
19	46306	13.5	0.015634054644025
19	46937	13.6	0.067552026943289
19	47568	13.7	0.082076813257288
19	48199	13.8	-0.050721634784701
19	48830	13.9	0.13075893772765
19	49461	14	-0.42969726396258
19	50092	14.1	-0.32288802994881
19	50723	14.2	0.88386360965671
19	51354	14.3	-0.69322243339851
19	51985	14.4	0.42808250517119
19	52616	14.5	0.0041220411192811
19	53247	14.6	-0.050346472510157
19	53878	14.7	-0.79791132069658
19	54509	14.8	1.0653901428916
19	55140	14.9	-0.78767066660802
19	55771	15	0.2169054472586
19	56402	15.1	0.2222986734705
19	57033	15.2	0.4528756389627
19	57664	15.3	-0.11880704897919
19	58295	15.4	0.14690002831628
19	58926	15.5	-0.018418999714775
19	59557	15.6	-1.0061590340687
19	60188	15.7	0.90994076367934
19	60819	15.8	-0.68632257259452
19	61450	15.9	-0.39457835282665
19	62081	16	0.003334719710999
19	62712	16.1	0.80568006422837
19	63343	16.2	0.1817379762884
19	63974	16.3	-0.11331876465118
19	64605	16.4	-0.64023071830164
19	65236	16.5	-0.33550183107142
19	65867	16.6	1.0702950248495
19	66498	16.7	-0.39388455343431
19	67129	16.8	0.02746459692716
19	67760	16.9	0.14706661603412
19	68391	17	-0.01105165444315
19	69022	17.1	-0.69927085309754
19	69653	17.2	1.0753049427644
19	70284	17.3	-1.16493639322
19	70915	17.4	0.14376770274247
19	71546	17.5	0.91044422588311
19	72177	17.6	-0.45495870248413
19	72808	17.7	0.57101457638201
19	73439	17.8	-0.47472286284904
19	74070	17.9	0.031062477384722
19	74701	18	0.00084629463962926
19	75332	18.1	-0.33053801341449
19	75963	18.2	0.32246184251271
19	76594	18.3	-0.26121491291558
19	77225	18.4	-0.33911673030818
19	77856	18.5	0.65268746551592
19	78487	18.6	-0.010550905461422
19	79118	18.7	0.35516246282498
19	79749	18.8	-0.080738066695645
19	80380	18.9	-0.048718632501554
19	81011	19	-0.71685316250658
19	81642	19.1	-0.16555609807838
19	82273	19.2	0.49050212209114
19	82904	19.3	-0.23487981059588
19	83535	19.4	0.82541366936638
19	84166	19.5	-0.04493221670856
19	84797	19.6	-0.28474430663046
19	85428	19.7	-0.75009365044533
19	85942	19.8	0.02420772525948
19	86456	19.9	0.10932219128588
19	86970	20	-0.022354917856831
19	87484	20.1	0.058883861498877
19	87998	20.2	-0.041063498938456
19	88512	20.3	0.90896219764836
19	89026	20.4	0.0046940833097509
19	89540	20.5	-0.27134517966772
19	90054	20.6	-0.14002404864875
19	90568	20.7	0.49962720787153
19	91082	20.8	-0.91203728404363
19	91596	20.9	0.43679438848049
19	92110	21	0.33879618933423
19	92519	21.1	-0.79793982405679
19	92928	21.2	0.86032925471663
19	93337	21.3	-0.69913184102624
19	93746	21.4	-0.16252695727164
19	94155	21.5	0.91194148859941
19	94564	21.6	-0.94815463516859
18	476	2.2	20.072128600143
18	540	2.3	20.018839621604
18	604	2.4	20.006888657361
18	668	2.5	20.016109386701
18	732	2.6	20.052337927537
18	796	2.7	20.104624324911
18	860	2.8	20.044337427139
18	924	2.9	19.99719304058
18	988	3	20.106232011165
18	1052	3.1	20.085607770516
18	1161	3.2	20.060700456325
18	1270	3.3	20.117557326257
18	1379	3.4	20.04042755608
18	1488	3.5	19.997312750213
18	1597	3.6	20.073263972732
18	1706	3.7	20.029307944595
18	1815	3.8	20.033320327534
18	1924	3.9	20.092650266984
18	2033	4	20.078994314545
18	2142	4.1	20.045874419126
18	2308	4.2	19.995336594996
18	2474	4.3	20.099029763548
18	2640	4.4	20.066132083558
18	2806	4.5	20.099333953757
18	2972	4.6	20.078763773181
18	3138	4.7	20.072065728456
18	3304	4.8	20.039030007876
18	3470	4.9	19.993060269521
18	3636	5	20.11275708992
18	3802	5.1	20.114905587435
18	4037	5.2	20.081501774092
18	4272	5.3	20.066145811512
18	4507	5.4	20.0463418117
18	4742	5.5	20.107787734221
18	4977	5.6	20.078586035857
18	5212	5.7	20.02687746428
18	5447	5.8	20.043753318707
18	5682	5.9	20.119389587329
18	5917	6	20.024424777343
18	6152	6.1	20.045099546334
18	6468	6.2	20.004097923993
18	6784	6.3	20.029067693928
18	7100	6.4	20.032192919964
18	7416	6.5	20.029970893103
18	7732	6.6	20.090030706993
18	8048	6.7	20.117504883918
18	8364	6.8	20.070149910618
18	8680	6.9	20.081223297382
18	8996	7	20.115628737812
18	9312	7.1	20.003448942222
18	9721	7.2	20.015194781066
18	10130	7.3	20.02714863121
18	10539	7.4	20.098875918924
18	10948	7.5	20.015048535159
18	11357	7.6	20.02933425958
18	11766	7.7	19.993182203427
18	12175	7.8	20.025101226976
18	12584	7.9	20.094000451695
18	12993	8	20.075104281788
18	13402	8.1	20.098589759655
18	13916	8.2	20.085255870579
18	14430	8.3	20.07944715058
18	14944	8.4	20.045955440858
18	15458	8.5	20.11245620888
18	15972	8.6	20.039704470506
18	16486	8.7	20.061019410864
18	17000	8.8	20.060718098958
18	17514	8.9	20.078397771178
18	18028	9	20.119992804453
18	18542	9.1	19.99613708443
18	19173	9.2	20.086987586101
18	19804	9.3	20.064790889528
18	20435	9.4	20.007698771833
18	21066	9.5	20.068512238509
18	21697	9.6	20.073770344446
18	22328	9.7	20.109155083483
18	22959	9.8	20.088692258964
18	23590	9.9	20.017930121664
18	24221	10	19.992925632414
18	24852	10.1	19.996588553169
18	25483	10.2	20.081907363075
18	26114	10.3	20.100741688197
18	26745	10.4	20.072084001601
18	27376	10.5	20.09083878688
18	28007	10.6	20.002147785258
18	28638	10.7	20.089809561598
18	29269	10.8	20.019824502657
18	29900	10.9	20.088102262351
18	30531	11	20.084857372537
18	31162	11.1	20.060701726673
18	31793	11.2	20.096450374832
18	32424	11.3	20.018937017468
18	33055	11.4	20.071789135989
18	33686	11.5	20.109995662286
18	34317	11.6	20.036075868651
18	34948	11.7	20.031418973433
18	35579	11.8	20.095672983925
18	36210	11.9	20.060381485655
18	36841	12	20.029049132722
18	37472	12.1	20.099129953086
18	38103	12.2	20.008496056341
18	38734	12.3	20.001850317507
18	39365	12.4	20.111847316599
18	39996	12.5	19.995332246213
18	40627	12.6	20.067836265385
18	41258	12.7	20.060958888123
18	41889	12.8	20.117971211271
18	42520	12.9	20.087085145169
18	43151	13	19.993346691788
18	43782	13.1	20.056260305417
18	44413	13.2	20.088615579628
18	45044	13.3	20.064868431683
18	45675	13.4	20.073129077288
18	46306	13.5	20.074692482753
18	46937	13.6	20.081447685447
18	47568	13.7	20.089655366773
18	48199	13.8	20.084583203294
18	48830	13.9	20.097659097067
18	49461	14	20.054689370671
18	50092	14.1	20.022400567676
18	50723	14.2	20.110786928642
18	51354	14.3	20.041464685302
18	51985	14.4	20.084272935819
18	52616	14.5	20.084685139931
18	53247	14.6	20.07965049268
18	53878	14.7	19.99985936061
18	54509	14.8	20.106398374899
18	55140	14.9	20.027631308238
18	55771	15	20.049321852964
18	56402	15.1	20.071551720311
18	57033	15.2	20.116839284208
18	57664	15.3	20.10495857931
18	58295	15.4	20.119648582141
18	58926	15.5	20.11780668217
18	59557	15.6	20.017190778763
18	60188	15.7	20.108184855131
18	60819	15.8	20.039552597872
18	61450	15.9	20.000094762589
18	62081	16	20.00042823456
18	62712	16.1	20.080996240983
18	63343	16.2	20.099170038612
18	63974	16.3	20.087838162147
18	64605	16.4	20.023815090316
18	65236	16.5	19.990264907209
18	65867	16.6	20.097294409694
18	66498	16.7	20.057905954351
18	67129	16.8	20.060652414043
18	67760	16.9	20.075359075647
18	68391	17	20.074253910203
18	69022	17.1	20.004326824893
18	69653	17.2	20.111857319169
18	70284	17.3	19.995363679847
18	70915	17.4	20.009740450121
18	71546	17.5	20.10078487271
18	72177	17.6	20.055289002461
18	72808	17.7	20.1123904601
18	73439	17.8	20.064918173815
18	74070	17.9	20.068024421553
18	74701	18	20.068109051017
18	75332	18.1	20.035055249676
18	75963	18.2	20.067301433927
18	76594	18.3	20.041179942635
18	77225	18.4	20.007268269605
18	77856	18.5	20.072537016156
18	78487	18.6	20.07148192561
18	79118	18.7	20.106998171892
18	79749	18.8	20.098924365223
18	80380	18.9	20.094052501973
18	81011	19	20.022367185722
18	81642	19.1	20.005811575914
18	82273	19.2	20.054861788123
18	82904	19.3	20.031373807064
18	83535	19.4	20.113915174
18	84166	19.5	20.10942195233
18	84797	19.6	20.080947521667
18	85428	19.7	20.005938156622
18	85942	19.8	20.008358929148
18	86456	19.9	20.019291148277
18	86970	20	20.017055656491
18	87484	20.1	20.022944042641
18	87998	20.2	20.018837692747
18	88512	20.3	20.109733912512
18	89026	20.4	20.110203320843
18	89540	20.5	20.083068802876
18	90054	20.6	20.069066398011
18	90568	20.7	20.119029118798
18	91082	20.8	20.027825390394
18	91596	20.9	20.071504829242
18	92110	21	20.105384448175
18	92519	21.1	20.02559046577
18	92928	21.2	20.111623391241
18	93337	21.3	20.041710207139
18	93746	21.4	20.025457511412
18	94155	21.5	20.116651660271
18	94564	21.6	20.021836196755
17	412	2.1	416.30025728988
17	476	2.2	416.30025728988
17	540	2.3	414.29314569174
17	604	2.4	412.29136272262
17	668	2.5	410.29077478962
17	732	2.6	408.28926483022
17	796	2.7	406.28413219949
17	860	2.8	404.27377119281
17	924	2.9	402.26943857177
17	988	3	400.26982015154
17	1052	3.1	398.25929838435
17	1161	3.2	396.25083893717
17	1270	3.3	394.24487009576
17	1379	3.4	392.23321585419
17	1488	3.5	390.22927420053
17	1597	3.6	388.22964380994
17	1706	3.7	386.22241868027
17	1815	3.8	384.21958893166
17	1924	3.9	382.21635796499
17	2033	4	380.2071943037
17	2142	4.1	378.19939616876
17	2308	4.2	376.19490985627
17	2474	4.3	374.19547707123
17	2640	4.4	372.18567549247
17	2806	4.5	370.17916351573
17	2972	4.6	368.16933151948
17	3138	4.7	366.16155643751
17	3304	4.8	364.15445112622
17	3470	4.9	362.15064922033
17	3636	5	360.15144405636
17	3802	5.1	358.1402698142
17	4037	5.2	356.12888073314
17	4272	5.3	354.12083186489
17	4507	5.4	352.11431851543
17	4742	5.5	350.10978546604
17	4977	5.6	348.09910813439
17	5212	5.7	346.09135082526
17	5447	5.8	344.08876411241
17	5682	5.9	342.08448989927
17	5917	6	340.07265244083
17	6152	6.1	338.07031098431
17	6468	6.2	336.06590215519
17	6784	6.3	334.06559328146
17	7100	6.4	332.0627875567
17	7416	6.5	330.05966932511
17	7732	6.6	328.05677328499
17	8048	6.7	326.04787156648
17	8364	6.8	324.03622256888
17	8680	6.9	322.02930882971
17	8996	7	320.02128780773
17	9312	7.1	318.00982641527
17	9721	7.2	316.00958243644
17	10130	7.3	314.00816393298
17	10539	7.4	312.00555010482
17	10948	7.5	309.99576390974
17	11357	7.6	307.99436003013
17	11766	7.7	305.99152765015
17	12175	7.8	303.99231029341
17	12584	7.9	301.98990119534
17	12993	8	299.98060252238
17	13402	8.1	297.97319337109
17	13916	8.2	295.96343579049
17	14430	8.3	293.95501153153
17	14944	8.4	291.94716811527
17	15458	8.5	289.94267370102
17	15972	8.6	287.93152954545
17	16486	8.7	285.9276601967
17	17000	8.8	283.92165946144
17	17514	8.9	281.91568885585
17	18028	9	279.90795037224
17	18542	9.1	277.89605259513
17	19173	9.2	275.8965397652
17	19804	9.3	273.88794234342
17	20435	9.4	271.88156447932
17	21066	9.5	269.88089553897
17	21697	9.6	267.87414555875
17	22328	9.7	265.86686979446
17	22959	9.8	263.85605573478
17	23590	9.9	261.84728785432
17	24221	10	259.8455958306
17	24852	10.1	257.84640412966
17	25483	10.2	255.84684615513
17	26114	10.3	253.83875673003
17	26745	10.4	251.82878396743
17	27376	10.5	249.82167682892
17	28007	10.6	247.8126943065
17	28638	10.7	245.8125804368
17	29269	10.8	243.80370083171
17	29900	10.9	241.80181937945
17	30531	11	239.79311049568
17	31162	11.1	237.78472608451
17	31793	11.2	235.77875711607
[...]
68	92519	21.1	0.41578059745952
68	92928	21.2	0.27300458222161
68	93337	21.3	-0.50740787275135
68	93746	21.4	-0.26809459072538
68	94155	21.5	0.67476499667393
68	94564	21.6	0.24138116675893
68	94973	21.7	-0.81390190615782
68	95289	21.8	0.48890622782054
68	95605	21.9	-0.4380355549976
68	95921	22	-0.19590445687065
68	96237	22.1	-0.11994250274729
68	96553	22.2	1.0801207757089
68	96869	22.3	-0.19586025835014
68	97185	22.4	-0.13285221063999
68	97501	22.5	0.055338520207435
68	97817	22.6	0.02376158668195
68	98133	22.7	0.010856264317418
68	98368	22.8	-0.65737999244593
68	98603	22.9	0.077605409687358
68	98838	23	0.38294415380808
68	99073	23.1	-0.16448189369402
68	99308	23.2	-0.38862529210746
68	99543	23.3	0.58512581759132
68	99778	23.4	0.26680804765782
68	100013	23.5	-0.91921914983541
68	100248	23.6	0.96612669087481
68	100483	23.7	0.15404325036798
68	100718	23.8	-1.0485713987611
68	100953	23.9	0.67746675775851
68	101188	24	-0.40946950765793
68	101354	24.1	0.7879930248717
68	101520	24.2	-1.0083985179896
68	101686	24.3	-0.17824835320937
68	101852	24.4	0.079073897842328
68	102018	24.5	0.22836956896356
68	102184	24.6	-0.12030420303347
68	102350	24.7	-0.22487253476864
68	102459	24.8	0.62412478337063
68	102568	24.9	0.21476953886449
68	102677	25	-0.49837739167266
68	102786	25.1	0.29551261824089
68	102895	25.2	0.14535943879746
68	103004	25.3	-0.40836658803748
68	103113	25.4	-0.34908594505396
68	103222	25.5	0.35575876359363
68	103331	25.6	0.64172171887474
68	103440	25.7	-0.71057231253942
68	103504	25.8	-0.17622519729194
68	103568	25.9	1.0028282461688
68	103632	26	0.008509158040404
68	103696	26.1	-0.96540447226726
68	103760	26.2	0.69889838194939
68	103824	26.3	-0.22711038906127
68	103888	26.4	0.54862389781047
68	103952	26.5	-1.0834168132395
68	104016	26.6	0.94390507412609
68	104080	26.7	-0.34790863611267
68	104144	26.8	-0.72239331586754
68	104208	26.9	0.69249592400158
68	104272	27	0.22993276896884
68	104303	27.1	-0.018103168439119
68	104334	27.2	-0.37295937072486
68	104365	27.3	-0.42984979583416
68	104396	27.4	0.1513917786302
68	104427	27.5	0.10571919584184
68	104458	27.6	0.21419790014622
68	104489	27.7	-0.4720621415181
68	104499	27.8	0.28893020290415
68	104509	27.9	0.26998802139424
68	104519	28	0.17085502559787
68	104529	28.1	-0.66676702401601
68	104539	28.2	0.31779211100655
68	104549	28.3	-0.26598642112223
68	104559	28.4	0.51890151330738
68	104569	28.5	0.28728867571335
68	104579	28.6	-0.25995537131095
67	19173	9.2	20.100019740548
67	19804	9.3	20.015014565552
67	20435	9.4	20.028418345975
67	21066	9.5	20.103771702084
67	21697	9.6	20.091731435726
67	22328	9.7	20.08270104409
67	22959	9.8	20.011705047691
67	23590	9.9	20.044541873022
67	24221	10	20.005746933944
67	24852	10.1	20.055241770302
67	25483	10.2	20.007899728513
67	26114	10.3	20.084967673277
67	26745	10.4	20.104314590455
67	27376	10.5	20.017446539381
67	28007	10.6	20.019221428307
67	28638	10.7	20.050649462088
67	29269	10.8	20.014644867647
67	29900	10.9	20.107448550137
67	30531	11	20.060393108015
67	31162	11.1	20.012506852208
67	31793	11.2	20.009854208827
67	32424	11.3	20.004033543961
67	33055	11.4	20.056193579829
67	33686	11.5	20.097365446654
67	34317	11.6	20.101302182244
67	34948	11.7	20.099216891332
67	35579	11.8	20.109213673188
67	36210	11.9	20.058481313004
67	36841	12	20.020294744205
67	37472	12.1	19.996016220436
67	38103	12.2	20.099507804762
67	38734	12.3	19.996591327654
67	39365	12.4	20.080091813169
67	39996	12.5	20.010103501026
67	40627	12.6	20.108036414159
67	41258	12.7	20.052091830759
67	41889	12.8	20.044580276464
67	42520	12.9	20.088195316847
67	43151	13	20.0150870311
67	43782	13.1	20.110841865395
67	44413	13.2	20.00898778504
67	45044	13.3	20.061871300933
67	45675	13.4	20.061619154494
67	46306	13.5	20.003380886174
67	46937	13.6	20.004102051274
67	47568	13.7	20.037953679103
67	48199	13.8	20.016580482896
67	48830	13.9	20.024009256102
67	49461	14	20.074658254294
67	50092	14.1	20.027820624458
67	50723	14.2	20.070817601392
67	51354	14.3	19.992655477161
67	51985	14.4	19.993152280438
67	52616	14.5	20.027880850602
67	53247	14.6	20.077159448096
67	53878	14.7	20.004399667701
67	54509	14.8	19.997188027778
67	55140	14.9	20.084551195053
67	55771	15	20.060171437985
67	56402	15.1	20.10002841959
67	57033	15.2	20.030183815444
67	57664	15.3	20.069447233686
67	58295	15.4	20.001077213727
67	58926	15.5	20.11621699892
67	59557	15.6	20.015132987222
67	60188	15.7	20.005586107827
67	60819	15.8	20.07068371027
67	61450	15.9	20.114413067168
67	62081	16	20.046838193859
67	62712	16.1	20.044484654304
67	63343	16.2	20.001570781176
67	63974	16.3	20.096032862351
67	64605	16.4	20.078326508177
67	65236	16.5	19.993871165512
67	65867	16.6	20.079797332566
67	66498	16.7	19.999331567942
67	67129	16.8	20.034587429112
67	67760	16.9	19.991997888447
67	68391	17	20.046671634018
67	69022	17.1	20.020514823471
67	69653	17.2	20.096676691179
67	70284	17.3	19.997698384332
67	70915	17.4	20.092500592531
67	71546	17.5	20.108269712331
67	72177	17.6	20.003444436318
67	72808	17.7	19.994256290251
67	73439	17.8	20.089415830066
67	74070	17.9	20.07041837032
67	74701	18	20.001181141997
67	75332	18.1	20.019145581764
67	75963	18.2	20.050988183557
67	76594	18.3	20.031324535992
67	77225	18.4	20.01647847628
67	77856	18.5	20.026331422408
67	78487	18.6	20.118870310558
67	79118	18.7	20.071966339808
67	79749	18.8	20.076815184529
67	80380	18.9	20.06516021332
67	81011	19	20.006756671155
67	81642	19.1	20.060733203106
67	82273	19.2	20.093932918678
67	82904	19.3	20.089699881927
67	83535	19.4	20.097887046735
67	84166	19.5	20.015650022104
67	84797	19.6	20.026116077539
67	85428	19.7	20.045222379291
67	85942	19.8	20.0055118443
67	86456	19.9	20.111539277635
67	86970	20	20.098413783263
67	87484	20.1	20.093276378629
67	87998	20.2	20.010428864022
67	88512	20.3	20.087884121749
67	89026	20.4	20.087947598009
67	89540	20.5	20.119651981085
67	90054	20.6	20.114800935276
67	90568	20.7	20.042511551462
67	91082	20.8	20.019904265665
67	91596	20.9	20.08968741176
67	92110	21	20.023119715233
67	92519	21.1	20.064697774979
67	92928	21.2	20.091998233201
67	93337	21.3	20.041257445926
67	93746	21.4	20.014447986854
67	94155	21.5	20.081924486521
67	94564	21.6	20.106062603197
67	94973	21.7	20.024672412581
67	95289	21.8	20.073563035363
67	95605	21.9	20.029759479864
67	95921	22	20.010169034177
67	96237	22.1	19.998174783902
67	96553	22.2	20.106186861473
67	96869	22.3	20.086600835638
67	97185	22.4	20.073315614574
67	97501	22.5	20.078849466594
67	97817	22.6	20.081225625263
67	98133	22.7	20.082311251694
67	98368	22.8	20.01657325245
67	98603	22.9	20.024333793418
67	98838	23	20.062628208799
67	99073	23.1	20.04618001943
67	99308	23.2	20.007317490219
67	99543	23.3	20.065830071978
67	99778	23.4	20.092510876744
67	100013	23.5	20.000588961761
67	100248	23.6	20.097201630848
67	100483	23.7	20.112605955885
67	100718	23.8	20.007748816009
67	100953	23.9	20.075495491785
67	101188	24	20.034548541019
67	101354	24.1	20.113347843506
67	101520	24.2	20.012507991707
67	101686	24.3	19.994683156386
67	101852	24.4	20.00259054617
67	102018	24.5	20.025427503067
67	102184	24.6	20.013397082763
67	102350	24.7	19.990909829286
67	102459	24.8	20.053322307623
67	102568	24.9	20.07479926151
67	102677	25	20.024961522343
67	102786	25.1	20.054512784167
67	102895	25.2	20.069048728046
67	103004	25.3	20.028212069243
67	103113	25.4	19.993303474737
67	103222	25.5	20.028879351097
67	103331	25.6	20.093051522984
67	103440	25.7	20.02199429173
67	103504	25.8	20.004371772001
67	103568	25.9	20.104654596618
67	103632	26	20.105505512422
67	103696	26.1	20.008965065195
67	103760	26.2	20.07885490339
67	103824	26.3	20.056143864484
67	103888	26.4	20.111006254265
67	103952	26.5	20.002664572941
67	104016	26.6	20.097055080354
67	104080	26.7	20.062264216742
67	104144	26.8	19.990024885156
67	104208	26.9	20.059274477556
67	104272	27	20.082267754453
67	104303	27.1	20.080457437609
67	104334	27.2	20.043161500536
67	104365	27.3	20.000176520953
67	104396	27.4	20.015315698816
67	104427	27.5	20.0258876184
67	104458	27.6	20.047307408415
67	104489	27.7	20.000101194263
67	104499	27.8	20.028994214553
67	104509	27.9	20.055993016693
67	104519	28	20.073078519253
67	104529	28.1	20.006401816851
67	104539	28.2	20.038181027952
67	104549	28.3	20.011582385839
67	104559	28.4	20.06347253717
67	104569	28.5	20.092201404742
67	104579	28.6	20.06620586761
66	18542	9.1	416.34012864494
66	19173	9.2	416.34012864494
66	19804	9.3	414.33017737218
66	20435	9.4	412.32872640249
66	21066	9.5	410.32593508857
66	21697	9.6	408.31560862912
66	22328	9.7	406.30648616593
66	22959	9.8	404.29826671913
66	23590	9.9	402.29714669288
66	24221	10	400.29274306693
66	24852	10.1	398.29221883703
66	25483	10.2	396.28674524834
66	26114	10.3	394.28600574441
66	26745	10.4	392.2775596404
66	27376	10.5	390.26717889348
66	28007	10.6	388.26548473255
66	28638	10.7	386.2636130872
66	29269	10.8	384.25859871775
66	29900	10.9	382.25718471692
66	30531	11	380.24649058193
66	31162	11.1	378.24050187247
66	31793	11.2	376.23930166779
66	32424	11.3	374.23836672076
66	33055	11.4	372.23801382554
66	33686	11.5	370.23244505829
66	34317	11.6	368.22275920822
66	34948	11.7	366.21267969453
66	35579	11.8	364.20280870466
66	36210	11.9	362.19193806182
66	36841	12	360.18614052703
66	37472	12.1	358.1841615528
66	38103	12.2	356.1846103697
66	38734	12.3	354.17471028923
66	39365	12.4	352.17510159686
66	39996	12.5	350.16714306657
66	40627	12.6	348.16618319095
66	41258	12.7	346.15543027104
66	41889	12.8	344.15027166836
66	42520	12.9	342.14586420216
66	43151	13	340.13709534194
66	43782	13.1	338.13563712588
66	44413	13.2	336.12460366793
66	45044	13.3	334.1237553611
66	45675	13.4	332.11761883607
66	46306	13.5	330.11150752505
66	46937	13.6	328.11121989395
66	47568	13.7	326.11086014817
66	48199	13.8	324.10711532499
66	48830	13.9	322.10550776752
66	49461	14	320.10315735147
66	50092	14.1	318.09574216336
66	50723	14.2	316.09301062008
66	51354	14.3	314.08597948757
66	51985	14.4	312.08676437033
66	52616	14.5	310.08749957401
66	53247	14.6	308.08476200827
66	53878	14.7	306.07709670709
66	54509	14.8	304.07670720041
66	55140	14.9	302.07703883954
66	55771	15	300.0686343823
66	56402	15.1	298.06266783928
66	57033	15.2	296.05271569863
66	57664	15.3	294.04974784222
66	58295	15.4	292.04285374303
66	58926	15.5	290.04279647337
66	59557	15.6	288.03122551562
66	60188	15.7	286.02976270407
66	60819	15.8	284.02925455637
66	61450	15.9	282.02223681264
66	62081	16	280.01084624352
66	62712	16.1	278.00621299128
66	63343	16.2	276.00181508705
66	63974	16.3	274.00170846189
66	64605	16.4	271.99215586689
66	65236	16.5	269.98437386265
66	65867	16.6	267.98503717963
66	66498	16.7	265.97710809666
66	67129	16.8	263.97722538717
66	67760	16.9	261.9738171805
66	68391	17	259.97466782047
66	69022	17.1	257.97005122379
66	69653	17.2	255.96805024219
66	70284	17.3	253.95843326593
66	70915	17.4	251.95871387068
66	71546	17.5	249.94951449375
66	72177	17.6	247.93873824462
66	72808	17.7	245.93844425867
66	73439	17.8	243.93906906416
66	74070	17.9	241.93017815569
66	74701	18	239.92318694528
66	75332	18.1	237.92311928306
66	75963	18.2	235.92125522217
66	76594	18.3	233.91620698143
66	77225	18.4	231.91312505584
66	77856	18.5	229.91152769877
66	78487	18.6	227.90894507195
66	79118	18.7	225.89710878973
66	79749	18.8	223.88996278628
66	80380	18.9	221.88233191059
66	81011	19	219.87586650261
66	81642	19.1	217.87524130154
66	82273	19.2	215.86921858342
66	82904	19.3	213.85987597749
66	83535	19.4	211.85095666456
66	84166	19.5	209.84121865579
66	84797	19.6	207.83970414206
66	85428	19.7	205.83714304917
66	85942	19.8	203.83267137431
66	86456	19.9	201.83217065278
66	86970	20	199.82106745537
66	87484	20.1	197.81127677428
66	87998	20.2	195.8019998207
66	88512	20.3	193.8010074096
66	89026	20.4	191.7922696681
66	89540	20.5	189.78352557914
66	90054	20.6	187.77161113185
66	90568	20.7	185.76018177689
66	91082	20.8	183.75598117798
66	91596	20.9	181.75404125061
66	92110	21	179.74512318467
66	92519	21.1	177.74286172046
66	92928	21.2	175.73644255515
66	93337	21.3	173.72729341289
66	93746	21.4	171.72321822136
66	94155	21.5	169.72182390812
66	94564	21.6	167.71368211511
66	94973	21.7	165.70312657133
66	95289	21.8	163.7007098413
66	95605	21.9	161.69340417232
66	95921	22	159.69047874839
66	96237	22.1	157.68951231962
66	96553	22.2	155.68974528562
66	96869	22.3	153.67917731632
66	97185	22.4	151.6705679002
66	97501	22.5	149.66328697268
66	97817	22.6	147.65545267391
66	98133	22.7	145.64738076526
66	98368	22.8	143.63920029672
66	98603	22.9	141.63759346227
66	98838	23	139.63521059331
66	99073	23.1	137.6289983794
66	99308	23.2	135.62443094294
66	99543	23.3	133.62374966137
66	99778	23.4	131.61721726922
66	100013	23.5	129.6080168639
66	100248	23.6	127.60800841821
66	100483	23.7	125.5983389493
66	100718	23.8	123.58712908675
66	100953	23.9	121.58640467369
66	101188	24	119.57890576395
66	101354	24.1	117.57550144599
66	101520	24.2	115.56421739655
66	101686	24.3	113.56301707792
66	101852	24.4	111.56359919787
66	102018	24.5	109.56339059878
66	102184	24.6	107.56089836161
66	102350	24.7	105.55960913612
66	102459	24.8	103.56056857926
66	102568	24.9	101.555286932
66	102677	25	99.547857643522
66	102786	25.1	97.545412003248
66	102895	25.2	95.540011311333
66	103004	25.3	93.533157061696
66	103113	25.4	91.530386374932
66	103222	25.5	89.531106459562
66	103331	25.6	87.528269046295
66	103440	25.7	85.519014577711
66	103504	25.8	83.516865653013
66	103568	25.9	81.516478935837
66	103632	26	79.506064189157
66	103696	26.1	77.495564353043
66	103760	26.2	75.494718318134
66	103824	26.3	73.486883475698
66	103888	26.4	71.481319679866
66	103952	26.5	69.470269783443
66	104016	26.6	67.470053781866
66	104080	26.7	65.460398967644
66	104144	26.8	63.454223152024
66	104208	26.9	61.455271087343
66	104272	27	59.4493942381
66	104303	27.1	57.441218119167
66	104334	27.2	55.433223027352
66	104365	27.3	53.428957435167
66	104396	27.4	51.428990232513
66	104427	27.5	49.427509150261
66	104458	27.6	47.424970902717
66	104489	27.7	45.420290730202
66	104499	27.8	43.420331060027
66	104509	27.9	41.417482160705
66	104519	28	39.411933449271
66	104529	28.1	37.404676230679
66	104539	28.2	35.404086514138
66	104549	28.3	33.400318956648
66	104559	28.4	31.399211196276
66	104569	28.5	29.392914551662
66	104579	28.6	27.383745092757
65	18542	9.1	26.697598627787
65	19173	9.2	26.697598627787
65	19804	9.3	26.716358105398
65	20435	9.4	26.735038247133
65	21066	9.5	26.753730898702
65	21697	9.6	26.772493878042
65	22328	9.7	26.791245620125
65	22959	9.8	26.809988934085
65	23590	9.9	26.828665987025
65	24221	10	26.847373686785
65	24852	10.1	26.86604517898
65	25483	10.2	26.884762865023
65	26114	10.3	26.903436366435
65	26745	10.4	26.922181795854
65	27376	10.5	26.940945281876
65	28007	10.6	26.959627693387
65	28638	10.7	26.978311761414
65	29269	10.8	26.997025161427
65	29900	10.9	27.01570495812
65	30531	11	27.034471369086
65	31162	11.1	27.053193862906
65	31793	11.2	27.071871664176
65	32424	11.3	27.090546989716
65	33055	11.4	27.109216882793
65	33686	11.5	27.127935457166
65	34317	11.6	27.146692457507
65	34948	11.7	27.165453132029
65	35579	11.8	27.184211860335
65	36210	11.9	27.202979918703
65	36841	12	27.221700628232
65	37472	12.1	27.240385697991
65	38103	12.2	27.259048108448
65	38734	12.3	27.277807108266
65	39365	12.4	27.296470055474
65	39996	12.5	27.315210934222
65	40627	12.6	27.333886492429
65	41258	12.7	27.352653452052
65	41889	12.8	27.371368198237
65	42520	12.9	27.39007593384
65	43151	13	27.40882437564
65	43782	13.1	27.427504585007
65	44413	13.2	27.446274162976
65	45044	13.3	27.464948679878
65	45675	13.4	27.483672553305
65	46306	13.5	27.502396191402
65	46937	13.6	27.521065475348
65	47568	13.7	27.539735432363
65	48199	13.8	27.55843698332
65	48830	13.9	27.577118586535
65	49461	14	27.595807123072
65	50092	14.1	27.614542930645
65	50723	14.2	27.633235024357
65	51354	14.3	27.651967247423
65	51985	14.4	27.670626521277
65	52616	14.5	27.6892862588
65	53247	14.6	27.707978408721
65	53878	14.7	27.726716550674
65	54509	14.8	27.745386785456
65	55140	14.9	27.764050289569
65	55771	15	27.782795330286
65	56402	15.1	27.80151761722
65	57033	15.2	27.820277102931
65	57664	15.3	27.838971402224
65	58295	15.4	27.857702346318
65	58926	15.5	27.876369480232
65	59557	15.6	27.895144074848
65	60188	15.7	27.913824327107
65	60819	15.8	27.932495669201
65	61450	15.9	27.951227767306
65	62081	16	27.970000678301
65	62712	16.1	27.988710521233
65	63343	16.2	28.007418167591
65	63974	16.3	28.026085762155
65	64605	16.4	28.044841518786
65	65236	16.5	28.063580749964
65	65867	16.6	28.082241158427
65	66498	16.7	28.100981762335
65	67129	16.8	28.119647267027
65	67760	16.9	28.138345676241
65	68391	17	28.157004336363
65	69022	17.1	28.175714023843
65	69653	17.2	28.194399299003
65	70284	17.3	28.213155656525
65	70915	17.4	28.231819636956
65	71546	17.5	28.250572096898
65	72177	17.6	28.26933927426
65	72808	17.7	28.288008617519
65	73439	17.8	28.306669385421
65	74070	17.9	28.325418966334
65	74701	18	28.344150816796
65	75332	18.1	28.362818047707
65	75963	18.2	28.381502044946
65	76594	18.3	28.40021576109
65	77225	18.4	28.418911125024
65	77856	18.5	28.437592633036
65	78487	18.6	28.456283336866
65	79118	18.7	28.475060407835
65	79749	18.8	28.493793703026
65	80380	18.9	28.512531523676
65	81011	19	28.531258466666
65	81642	19.1	28.549930901254
65	82273	19.2	28.568653712487
65	82904	19.3	28.587407509228
65	83535	19.4	28.606157355248
65	84166	19.5	28.624914842402
65	84797	19.6	28.643595577213
65	85428	19.7	28.66228608006
65	85942	19.8	28.680994414941
65	86456	19.9	28.699665687725
65	86970	20	28.718435916593
65	87484	20.1	28.737193895354
65	87998	20.2	28.755947079342
65	88512	20.3	28.774622941212
65	89026	20.4	28.793371092571
65	89540	20.5	28.812119303174
65	90054	20.6	28.830897103681
65	90568	20.7	28.849670376676
65	91082	20.8	28.868376181524
65	91596	20.9	28.887060886847
65	92110	21	28.905810721229
65	92519	21.1	28.924498427552
65	92928	21.2	28.943224938945
65	93337	21.3	28.961976930031
65	93746	21.4	28.980681564415
65	94155	21.5	28.999361177358
65	94564	21.6	29.018103766552
65	94973	21.7	29.036868884005
65	95289	21.8	29.05555803947
65	95605	21.9	29.074292824868
65	95921	22	29.092986728126
65	96237	22.1	29.111662347495
65	96553	22.2	29.130326772553
65	96869	22.3	29.149092005977
65	97185	22.4	29.167838959638
65	97501	22.5	29.186573514116
65	97817	22.6	29.205313233374
65	98133	22.7	29.224055170316
65	98368	22.8	29.242798120481
65	98603	22.9	29.261479716948
65	98838	23	29.280168556378
65	99073	23.1	29.298893136231
65	99308	23.2	29.317602364884
65	99543	23.3	29.336275322889
65	99778	23.4	29.355002891062
65	100013	23.5	29.373755360602
65	100248	23.6	29.392422038828
65	100483	23.7	29.411178886279
65	100718	23.8	29.429950110685
65	100953	23.9	29.448623471249
65	101188	24	29.467360060221
65	101354	24.1	29.48605843314
65	101520	24.2	29.504830349955
65	101686	24.3	29.523508152288
65	101852	24.4	29.542169318588
65	102018	24.5	29.560837864906
65	102184	24.6	29.579527725102
65	102350	24.7	29.598206357229
65	102459	24.8	29.616864001858
65	102568	24.9	29.635579896455
65	102677	25	29.65431583563
65	102786	25.1	29.673005260924
65	102895	25.2	29.6917222666
65	103004	25.3	29.710452838765
65	103113	25.4	29.729145297815
65	103222	25.5	29.747805176449
65	103331	25.6	29.766498258277
65	103440	25.7	29.785251232405
65	103504	25.8	29.803937888363
65	103568	25.9	29.82260809711
65	103632	26	29.841371900462
65	103696	26.1	29.860136497979
65	103760	26.2	29.878810993676
65	103824	26.3	29.897550718008
65	103888	26.4	29.916269245982
65	103952	26.5	29.935038977376
65	104016	26.6	29.953707592783
65	104080	26.7	29.972464303458
65	104144	26.8	29.991188543595
65	104208	26.9	30.009845362301
65	104272	27	30.028566812096
65	104303	27.1	30.047309721664
65	104334	27.2	30.066050941651
65	104365	27.3	30.084757353101
65	104396	27.4	30.103423646393
65	104427	27.5	30.122104069177
65	104458	27.6	30.140794358802
65	104489	27.7	30.159504639655
65	104499	27.8	30.178170862644
65	104509	27.9	30.196864051675
65	104519	28	30.215582438861
65	104529	28.1	30.234316772057
65	104539	28.2	30.252988875458
65	104549	28.3	30.271690638601
65	104559	28.4	30.29036757706
65	104569	28.5	30.309092944931
65	104579	28.6	30.327845125638
