version 2
run General-3-20161208-15:06:37-724
attr configname General
attr datetime 20161208-15:06:37
attr experiment General
attr inifile omnetpp.ini
attr iterationvars ""
attr iterationvars2 $repetition=3
attr measurement ""
attr network com.liborio.locvanet.LocScenario
attr processid 724
attr repetition 3
attr replication #3
attr resultdir results
attr runnumber 3
attr seedset 3
param **.coreDebug false
param **.debug false
param *.**.nic.mac1609_4.bitrate 18Mbps
param *.**.nic.mac1609_4.txPower 20mW
param *.**.nic.mac1609_4.useServiceChannel false
param *.**.nic.phy80211p.analogueModels "xmldoc(\"config_trgi.xml\")"
param *.**.nic.phy80211p.decider "xmldoc(\"config_trgi.xml\")"
param *.**.nic.phy80211p.sensitivity -89dBm
param *.**.nic.phy80211p.thermalNoise -110dBm
param *.**.nic.phy80211p.usePropagationDelay true
param *.**.nic.phy80211p.useThermalNoise true
param *.annotations.draw false
param *.connectionManager.alpha 2.0
param *.connectionManager.carrierFrequency "5.890e9 Hz"
param *.connectionManager.pMax 20mW
param *.connectionManager.sat -89dBm
param *.connectionManager.sendDirect true
param *.manager.autoShutdown true
param *.manager.host "\"localhost\""
param *.manager.launchConfig "xmldoc(\"tunnel.launchd.xml\")"
param *.manager.margin 25
param *.manager.moduleDisplayString "\"\""
param *.manager.moduleName "\"node\""
param *.manager.moduleType "\"org.car2x.veins.nodes.Car\""
param *.manager.port 9999
param *.manager.updateInterval 0.1s
param *.node[*].appl.beaconInterval 0.1s
param *.node[*].appl.beaconPriority 3
param *.node[*].appl.dataOnSch false
param *.node[*].appl.dataPriority 2
param *.node[*].appl.debug false
param *.node[*].appl.headerLength "256 bit"
param *.node[*].appl.maxOffset 0.005s
param *.node[*].appl.sendBeacons true
param *.node[*].appl.sendData true
param *.node[*].applType "\"LocAppCom\""
param *.node[*].mobilityType "\"TraCIMobility\""
param *.node[*].mobilityType.debug true
param *.node[*].veinsmobility.x 0
param *.node[*].veinsmobility.y 0
param *.node[*].veinsmobility.z 1.895
param *.node[*].veinsmobilityType "\"org.car2x.veins.modules.mobility.traci.TraCIMobility\""
param *.node[*].veinsmobilityType.debug true
param *.playgroundSizeX 5000m
param *.playgroundSizeY 5000m
param *.playgroundSizeZ 50m
param *.world.use2D false
param *.world.useTorus false

vector 2  LocScenario.node[0].veinsmobility  posx  ETV
vector 3  LocScenario.node[0].veinsmobility  posy  ETV
vector 4  LocScenario.node[0].veinsmobility  speed  ETV
vector 5  LocScenario.node[0].veinsmobility  acceleration  ETV
vector 6  LocScenario.node[0].veinsmobility  co2emission  ETV
vector 9  LocScenario.node[1].veinsmobility  posx  ETV
vector 10  LocScenario.node[1].veinsmobility  posy  ETV
vector 11  LocScenario.node[1].veinsmobility  speed  ETV
vector 12  LocScenario.node[1].veinsmobility  acceleration  ETV
vector 13  LocScenario.node[1].veinsmobility  co2emission  ETV
vector 16  LocScenario.node[2].veinsmobility  posx  ETV
vector 17  LocScenario.node[2].veinsmobility  posy  ETV
vector 18  LocScenario.node[2].veinsmobility  speed  ETV
vector 19  LocScenario.node[2].veinsmobility  acceleration  ETV
vector 20  LocScenario.node[2].veinsmobility  co2emission  ETV
vector 23  LocScenario.node[3].veinsmobility  posx  ETV
vector 24  LocScenario.node[3].veinsmobility  posy  ETV
vector 25  LocScenario.node[3].veinsmobility  speed  ETV
vector 26  LocScenario.node[3].veinsmobility  acceleration  ETV
vector 27  LocScenario.node[3].veinsmobility  co2emission  ETV
vector 30  LocScenario.node[4].veinsmobility  posx  ETV
vector 31  LocScenario.node[4].veinsmobility  posy  ETV
vector 32  LocScenario.node[4].veinsmobility  speed  ETV
vector 33  LocScenario.node[4].veinsmobility  acceleration  ETV
vector 34  LocScenario.node[4].veinsmobility  co2emission  ETV
vector 37  LocScenario.node[5].veinsmobility  posx  ETV
vector 38  LocScenario.node[5].veinsmobility  posy  ETV
vector 39  LocScenario.node[5].veinsmobility  speed  ETV
vector 40  LocScenario.node[5].veinsmobility  acceleration  ETV
vector 41  LocScenario.node[5].veinsmobility  co2emission  ETV
vector 44  LocScenario.node[6].veinsmobility  posx  ETV
vector 45  LocScenario.node[6].veinsmobility  posy  ETV
vector 46  LocScenario.node[6].veinsmobility  speed  ETV
vector 47  LocScenario.node[6].veinsmobility  acceleration  ETV
vector 48  LocScenario.node[6].veinsmobility  co2emission  ETV
vector 51  LocScenario.node[7].veinsmobility  posx  ETV
vector 52  LocScenario.node[7].veinsmobility  posy  ETV
vector 53  LocScenario.node[7].veinsmobility  speed  ETV
vector 54  LocScenario.node[7].veinsmobility  acceleration  ETV
vector 55  LocScenario.node[7].veinsmobility  co2emission  ETV
vector 58  LocScenario.node[8].veinsmobility  posx  ETV
vector 59  LocScenario.node[8].veinsmobility  posy  ETV
vector 60  LocScenario.node[8].veinsmobility  speed  ETV
vector 61  LocScenario.node[8].veinsmobility  acceleration  ETV
vector 62  LocScenario.node[8].veinsmobility  co2emission  ETV
vector 65  LocScenario.node[9].veinsmobility  posx  ETV
vector 66  LocScenario.node[9].veinsmobility  posy  ETV
vector 67  LocScenario.node[9].veinsmobility  speed  ETV
vector 68  LocScenario.node[9].veinsmobility  acceleration  ETV
vector 69  LocScenario.node[9].veinsmobility  co2emission  ETV
6	22	0.3	0.973
6	32	0.4	1.9892382769045
6	42	0.5	6.2813915305189
6	52	0.6	3.8985750161498
6	62	0.7	0.973
6	72	0.8	2.4538577772267
6	82	0.9	0.78615625720257
6	92	1	5.6895048214414
6	102	1.1	0.973
6	133	1.2	8.2244889415105
6	164	1.3	1.5234628330291
6	195	1.4	3.8033409217134
6	226	1.5	0.973
6	257	1.6	6.2902523123823
6	288	1.7	0.88899122350383
6	319	1.8	4.324129288181
6	350	1.9	1.9556628884921
6	381	2	1.9510312786816
6	412	2.1	0.973
6	476	2.2	5.0476016748689
6	540	2.3	3.8085329458976
6	604	2.4	3.5748158733012
6	668	2.5	0.91745432533525
6	732	2.6	5.5359718272756
6	796	2.7	0.973
6	860	2.8	5.6658141591132
6	924	2.9	0.973
6	988	3	2.5421453070222
6	1052	3.1	7.8283663047974
6	1161	3.2	0.973
6	1270	3.3	5.2395311363787
6	1379	3.4	0.973
6	1488	3.5	7.6478802118732
6	1597	3.6	0.973
6	1706	3.7	2.5261405680363
6	1815	3.8	2.543178621284
6	1924	3.9	1.4519597625929
6	2033	4	5.950195705627
6	2142	4.1	0.973
6	2308	4.2	3.2449815842361
6	2474	4.3	2.7238367756765
6	2640	4.4	2.1849010934102
6	2806	4.5	3.6992310425713
6	2972	4.6	1.825227361958
6	3138	4.7	7.6495275209824
6	3304	4.8	1.2035913985345
6	3470	4.9	0.74186907575087
6	3636	5	1.1373923222478
6	3802	5.1	8.1584788279723
6	4037	5.2	0.973
6	4272	5.3	6.6531604233126
6	4507	5.4	1.0919468023583
6	4742	5.5	0.973
6	4977	5.6	2.9366255858932
6	5212	5.7	2.2134105744487
6	5447	5.8	2.9061168440701
6	5682	5.9	6.9080584911396
6	5917	6	0.973
6	6152	6.1	4.4789197764337
6	6468	6.2	2.9324724827416
6	6784	6.3	3.7232454645441
6	7100	6.4	4.0838185109756
6	7416	6.5	1.9884145083051
6	7732	6.6	2.838989114642
6	8048	6.7	1.1109029005139
6	8364	6.8	0.973
6	8680	6.9	2.6145745905816
6	8996	7	6.9180454027115
6	9312	7.1	0.973
6	9721	7.2	4.4295119292747
6	10130	7.3	2.9632788684587
6	10539	7.4	3.0853040898556
6	10948	7.5	0.973
6	11357	7.6	8.4490651516721
6	11766	7.7	0.973
6	12175	7.8	2.1742775980336
6	12584	7.9	5.064369894652
6	12993	8	3.2190751440411
6	13402	8.1	0.973
6	13916	8.2	7.9284832810532
6	14430	8.3	0.973
6	14944	8.4	5.1964660879278
6	15458	8.5	1.36652198344
6	15972	8.6	3.5995333984538
6	16486	8.7	2.1374397355158
6	17000	8.8	0.973
6	17514	8.9	7.7867198806044
6	18028	9	0.973
6	18542	9.1	3.223995417062
6	19173	9.2	5.2671601558726
6	19804	9.3	2.5262382914808
6	20435	9.4	4.3037520659231
6	21066	9.5	2.7087858453008
6	21697	9.6	0.973
6	22328	9.7	2.2343321913463
6	22959	9.8	3.8035408011418
6	23590	9.9	1.5617838714328
6	24221	10	6.1339221049402
6	24852	10.1	1.9962391400691
6	25483	10.2	1.6159442420546
6	26114	10.3	1.60014422808
6	26745	10.4	7.1701021970686
6	27376	10.5	0.82473657239038
6	28007	10.6	1.9409148544523
6	28638	10.7	1.3272436805195
6	29269	10.8	5.5686654762544
6	29900	10.9	4.1836779667179
6	30531	11	0.973
6	31162	11.1	6.7354580786366
6	31793	11.2	0.973
6	32424	11.3	4.3802282202626
6	33055	11.4	5.3432785228749
6	33686	11.5	0.973
6	34317	11.6	7.8052365840776
6	34948	11.7	4.0056134370311
6	35579	11.8	1.6342015928397
6	36210	11.9	1.9983581624475
6	36841	12	3.8248108917766
6	37472	12.1	2.0590681943757
6	38103	12.2	4.590963796503
6	38734	12.3	0.973
6	39365	12.4	2.546401301392
6	39996	12.5	2.4829827552092
6	40627	12.6	1.4955792820656
6	41258	12.7	5.2314122366966
6	41889	12.8	3.1895006523165
6	42520	12.9	1.8787856426963
6	43151	13	0.973
6	43782	13.1	5.6703509702268
6	44413	13.2	0.63719647125073
6	45044	13.3	5.0078000549944
6	45675	13.4	1.6128372251403
6	46306	13.5	2.1401601273522
6	46937	13.6	3.1998281369216
6	47568	13.7	2.3240733927114
6	48199	13.8	6.9240772688094
6	48830	13.9	0.973
6	49461	14	6.4395515741192
6	50092	14.1	1.9826785676871
6	50723	14.2	2.8635636383591
6	51354	14.3	3.9447767479641
6	51985	14.4	0.79389697482868
6	52616	14.5	1.8029391682045
6	53247	14.6	1.0800161351607
6	53878	14.7	4.7651024107614
6	54509	14.8	1.0356835928352
6	55140	14.9	6.9492545201486
6	55771	15	0.973
6	56402	15.1	6.6185991168757
6	57033	15.2	0.79124619792311
6	57664	15.3	0.973
6	58295	15.4	6.2133784675551
6	58926	15.5	4.6686515242084
6	59557	15.6	0.973
6	60188	15.7	7.4308120101227
6	60819	15.8	0.973
6	61450	15.9	7.33332494805
6	62081	16	3.5804606809164
6	62712	16.1	0.973
6	63343	16.2	8.3506982460574
6	63974	16.3	0.973
6	64605	16.4	3.2531969183528
6	65236	16.5	0.56125418343858
6	65867	16.6	5.5340348853553
6	66498	16.7	0.973
6	67129	16.8	2.7174791078676
6	67760	16.9	4.5194496403551
6	68391	17	3.6770203120431
6	69022	17.1	2.6290076545879
6	69653	17.2	4.2831880702625
6	70284	17.3	0.973
6	70915	17.4	7.0779184126412
6	71546	17.5	1.6893379497546
6	72177	17.6	1.834330184176
6	72808	17.7	3.7389628516062
6	73439	17.8	0.973
6	74070	17.9	4.9792215460417
6	74701	18	4.6860523786017
6	75332	18.1	1.4540635625244
6	75963	18.2	0.62637423566061
6	76594	18.3	2.8344812959644
6	77225	18.4	6.7135091317585
6	77856	18.5	0.973
6	78487	18.6	3.0452741862995
6	79118	18.7	6.8396080488835
6	79749	18.8	0.94038248866287
6	80380	18.9	2.6924717351201
6	81011	19	1.3813565453509
6	81642	19.1	2.3188806847053
6	82273	19.2	5.8671464979912
6	82904	19.3	0.973
6	83535	19.4	4.0769088445787
6	84166	19.5	2.0113607718117
6	84797	19.6	5.8775750532527
5	22	0.3	-0.82864982441532
5	32	0.4	-0.17134158615956
5	42	0.5	0.71375758831856
5	52	0.6	0.22044901363554
5	62	0.7	-0.50634872820229
5	72	0.8	-0.076028842129752
5	82	0.9	-0.42072632182389
5	92	1	0.59265052308326
5	102	1.1	-0.59700049634557
5	133	1.2	1.1123610596405
5	164	1.3	-0.26943483343345
5	195	1.4	0.20063784800001
5	226	1.5	-0.78165381005963
5	257	1.6	0.71428956266026
5	288	1.7	-0.40014279775786
5	319	1.8	0.30887387329713
5	350	1.9	-0.17982647866013
5	381	2	-0.18035010267049
5	412	2.1	-0.54686519114764
5	476	2.2	0.46078157788141
5	540	2.3	0.20344147568103
5	604	2.4	0.15448622291441
5	668	2.5	-0.39402335151099
5	732	2.6	0.55867790074554
5	796	2.7	-0.78103675635067
5	860	2.8	0.58669222812171
5	924	2.9	-0.76271204715596
5	988	3	-0.056314110592943
5	1052	3.1	1.0317662204383
5	1161	3.2	-0.86607543104329
5	1270	3.3	0.49949586661533
5	1379	3.4	-0.47116795778276
5	1488	3.5	0.9932272114791
5	1597	3.6	-0.70154828610828
5	1706	3.7	-0.060909638018352
5	1815	3.8	-0.057209344930023
5	1924	3.9	-0.2826735576382
5	2033	4	0.64603151925841
5	2142	4.1	-0.50238989084029
5	2308	4.2	0.08832816616632
5	2474	4.3	-0.019568739971128
5	2640	4.4	-0.13087829165162
5	2806	4.5	0.18229565632065
5	2972	4.6	-0.20539125050419
5	3138	4.7	0.99397888961249
5	3304	4.8	-0.33535593817941
5	3470	4.9	-0.43027637463531
5	3636	5	-0.34781910886522
5	3802	5.1	1.0991082505323
5	4037	5.2	-0.80611502272077
5	4272	5.3	0.78864487132524
5	4507	5.4	-0.35834487283136
5	4742	5.5	-0.59556914458518
5	4977	5.6	0.024930383358175
5	5212	5.7	-0.12466109131928
5	5447	5.8	0.018964673345891
5	5682	5.9	0.84268137002365
5	5917	6	-0.69219897086732
5	6152	6.1	0.34270930176135
5	6468	6.2	0.022666790685619
5	6784	6.3	0.18547702752986
5	7100	6.4	0.25881345411761
5	7416	6.5	-0.17330200199503
5	7732	6.6	0.0024193456629362
5	8048	6.7	-0.35405531537254
5	8364	6.8	-0.53634936718737
5	8680	6.9	-0.041065089520984
5	8996	7	0.84578940826468
5	9312	7.1	-0.61925094032194
5	9721	7.2	0.33286382192745
5	10130	7.3	0.029279348091222
5	10539	7.4	0.054338358272794
5	10948	7.5	-0.65149167887867
5	11357	7.6	1.159457877581
5	11766	7.7	-0.76926712142303
5	12175	7.8	-0.13310916160698
5	12584	7.9	0.46341054264921
5	12993	8	0.081456450046957
5	13402	8.1	-0.61529230424203
5	13916	8.2	1.051353337313
5	14430	8.3	-0.52507505177054
5	14944	8.4	0.48797241754365
5	15458	8.5	-0.30171635143926
5	15972	8.6	0.15906147442294
5	16486	8.7	-0.14245685720816
5	17000	8.8	-0.65697288534139
5	17514	8.9	1.0217516146135
5	18028	9	-0.86677021142098
5	18542	9.1	0.083606057125145
5	19173	9.2	0.50371952552815
5	19804	9.3	-0.06219143234194
5	20435	9.4	0.30357808971313
5	21066	9.5	-0.025362824765054
5	21697	9.6	-0.87639846883249
5	22328	9.7	-0.12056009885853
5	22959	9.8	0.20392017927954
5	23590	9.9	-0.25989508565981
5	24221	10	0.68376386889721
5	24852	10.1	-0.17104659075848
5	25483	10.2	-0.24920472258238
5	26114	10.3	-0.25196275669149
5	26745	10.4	0.89619410214947
5	27376	10.5	-0.41337156288794
5	28007	10.6	-0.18201167422813
5	28638	10.7	-0.30854527649936
5	29269	10.8	0.56761810907631
5	29900	10.9	0.27987446349581
5	30531	11	-0.87726252351423
5	31162	11.1	0.807381372503
5	31793	11.2	-0.94301260143983
5	32424	11.3	0.32384977878536
5	33055	11.4	0.52035021376795
5	33686	11.5	-0.82778811550234
5	34317	11.6	1.0275392583804
5	34948	11.7	0.24186858087777
5	35579	11.8	-0.24669937074652
5	36210	11.9	-0.17108360941055
5	36841	12	0.20549844244961
5	37472	12.1	-0.1586545561906
5	38103	12.2	0.3626339260256
5	38734	12.3	-0.55067080471197
5	39365	12.4	-0.057220862200502
5	39996	12.5	-0.0701333377976
5	40627	12.6	-0.27394293844701
5	41258	12.7	0.49735129764304
5	41889	12.8	0.074979496537715
5	42520	12.9	-0.19540974029805
5	43151	13	-0.65494984807447
5	43782	13.1	0.58924822979606
5	44413	13.2	-0.45167842851949
5	45044	13.3	0.45215853776316
5	45675	13.4	-0.24977092850023
5	46306	13.5	-0.14016325655394
5	46937	13.6	0.079224048228959
5	47568	13.7	-0.10197259122506
5	48199	13.8	0.84539444255643
5	48830	13.9	-0.7987423233455
5	49461	14	0.74573031992184
5	50092	14.1	-0.17426230583805
5	50723	14.2	0.0077867823420164
5	51354	14.3	0.23023445904254
5	51985	14.4	-0.41975795277395
5	52616	14.5	-0.21053013666531
5	53247	14.6	-0.35970690909309
5	53878	14.7	0.40270643120166
5	54509	14.8	-0.36895386043472
5	55140	14.9	0.85130297241268
5	55771	15	-0.65698857868554
5	56402	15.1	0.78210223417262
5	57033	15.2	-0.4203300506575
5	57664	15.3	-0.65261163150424
5	58295	15.4	0.70097822949755
5	58926	15.5	0.37953488798813
5	59557	15.6	-1.0883645522408
5	60188	15.7	0.9508120118873
5	60819	15.8	-0.94811579498927
5	61450	15.9	0.93081211054233
5	62081	16	0.1549077209318
5	62712	16.1	-0.95363707505168
5	63343	16.2	1.1379380573286
5	63974	16.3	-0.52621393883602
5	64605	16.4	0.088302610907718
5	65236	16.5	-0.46762238312514
5	65867	16.6	0.55915566452313
5	66498	16.7	-0.57945642841513
5	67129	16.8	-0.02079521955455
5	67760	16.9	0.35081327441148
5	68391	17	0.17582481028512
5	69022	17.1	-0.040636273007841
5	69653	17.2	0.29985344149171
5	70284	17.3	-0.8442876071669
5	70915	17.4	0.87643422379625
5	71546	17.5	-0.23507908168249
5	72177	17.6	-0.20465511709919
5	72808	17.7	0.18845598553309
5	73439	17.8	-0.89978036968969
5	74070	17.9	0.4472241245443
5	74701	18	0.38450208536815
5	75332	18.1	-0.28299321236556
5	75963	18.2	-0.4538431235822
5	76594	18.3	0.0042254531988917
5	77225	18.4	0.80304944198577
5	77856	18.5	-0.51810774027835
5	78487	18.6	0.046780734835217
5	79118	18.7	0.82646699277682
5	79749	18.8	-0.38975222574081
5	80380	18.9	-0.027584085543637
5	81011	19	-0.29803014507053
5	81642	19.1	-0.10368113354779
5	82273	19.2	0.62712359020953
5	82904	19.3	-0.71490877175236
5	83535	19.4	0.25961482501586
5	84166	19.5	-0.16737929310182
5	84797	19.6	0.6292343580164
4	12	0.2	20.110805765558
4	22	0.3	20.027940783117
4	32	0.4	20.010806624501
4	42	0.5	20.082182383332
4	52	0.6	20.104227284696
4	62	0.7	20.053592411876
4	72	0.8	20.045989527663
4	82	0.9	20.00391689548
4	92	1	20.063181947789
4	102	1.1	20.003481898154
4	133	1.2	20.114718004118
4	164	1.3	20.087774520775
4	195	1.4	20.107838305575
4	226	1.5	20.029672924569
4	257	1.6	20.101101880835
4	288	1.7	20.061087601059
4	319	1.8	20.091974988389
4	350	1.9	20.073992340523
4	381	2	20.055957330256
4	412	2.1	20.001270811141
4	476	2.2	20.047348968929
4	540	2.3	20.067693116497
4	604	2.4	20.083141738789
4	668	2.5	20.043739403638
4	732	2.6	20.099607193712
4	796	2.7	20.021503518077
4	860	2.8	20.080172740889
4	924	2.9	20.003901536174
4	988	3	19.998270125114
4	1052	3.1	20.101446747158
4	1161	3.2	20.014839204054
4	1270	3.3	20.064788790715
4	1379	3.4	20.017671994937
4	1488	3.5	20.116994716085
4	1597	3.6	20.046839887474
4	1706	3.7	20.040748923672
4	1815	3.8	20.035027989179
4	1924	3.9	20.006760633416
4	2033	4	20.071363785341
4	2142	4.1	20.021124796257
4	2308	4.2	20.029957612874
4	2474	4.3	20.028000738877
4	2640	4.4	20.014912909712
4	2806	4.5	20.033142475344
4	2972	4.6	20.012603350293
4	3138	4.7	20.112001239255
4	3304	4.8	20.078465645437
4	3470	4.9	20.035438007973
4	3636	5	20.000656097087
4	3802	5.1	20.11056692214
4	4037	5.2	20.029955419868
4	4272	5.3	20.108819907
4	4507	5.4	20.072985419717
4	4742	5.5	20.013428505259
4	4977	5.6	20.015921543594
4	5212	5.7	20.003455434463
4	5447	5.8	20.005351901797
4	5682	5.9	20.089620038799
4	5917	6	20.020400141713
4	6152	6.1	20.054671071889
4	6468	6.2	20.056937750957
4	6784	6.3	20.07548545371
4	7100	6.4	20.101366799122
4	7416	6.5	20.084036598923
4	7732	6.6	20.084278533489
4	8048	6.7	20.048873001952
4	8364	6.8	19.995238065233
4	8680	6.9	19.991131556281
4	8996	7	20.075710497107
4	9312	7.1	20.013785403075
4	9721	7.2	20.047071785268
4	10130	7.3	20.049999720077
4	10539	7.4	20.055433555904
4	10948	7.5	19.990284388016
4	11357	7.6	20.106230175775
4	11766	7.7	20.029303463632
4	12175	7.8	20.015992547472
4	12584	7.9	20.062333601736
4	12993	8	20.070479246741
4	13402	8.1	20.008950016317
4	13916	8.2	20.114085350048
4	14430	8.3	20.061577844871
4	14944	8.4	20.110375086626
4	15458	8.5	20.080203451482
4	15972	8.6	20.096109598924
4	16486	8.7	20.081863913203
4	17000	8.8	20.016166624669
4	17514	8.9	20.11834178613
4	18028	9	20.031664764988
4	18542	9.1	20.040025370701
4	19173	9.2	20.090397323254
4	19804	9.3	20.084178180019
4	20435	9.4	20.114535988991
4	21066	9.5	20.111999706514
4	21697	9.6	20.024359859631
4	22328	9.7	20.012303849745
4	22959	9.8	20.032695867673
4	23590	9.9	20.006706359107
4	24221	10	20.075082745997
4	24852	10.1	20.057978086921
4	25483	10.2	20.033057614663
4	26114	10.3	20.007861338994
4	26745	10.4	20.097480749208
4	27376	10.5	20.05614359292
4	28007	10.6	20.037942425497
4	28638	10.7	20.007087897847
4	29269	10.8	20.063849708755
4	29900	10.9	20.091837155104
4	30531	11	20.004110902753
4	31162	11.1	20.084849040003
4	31793	11.2	19.990547779859
4	32424	11.3	20.022932757738
4	33055	11.4	20.074967779114
4	33686	11.5	19.992188967564
4	34317	11.6	20.094942893402
4	34948	11.7	20.11912975149
4	35579	11.8	20.094459814415
4	36210	11.9	20.077351453474
4	36841	12	20.097901297719
4	37472	12.1	20.0820358421
4	38103	12.2	20.118299234703
4	38734	12.3	20.063232154232
4	39365	12.4	20.057510068011
4	39996	12.5	20.050496734232
4	40627	12.6	20.023102440387
4	41258	12.7	20.072837570151
4	41889	12.8	20.080335519805
4	42520	12.9	20.060794545775
4	43151	13	19.995299560968
4	43782	13.1	20.054224383947
4	44413	13.2	20.009056541095
4	45044	13.3	20.054272394872
4	45675	13.4	20.029295302022
4	46306	13.5	20.015278976366
4	46937	13.6	20.023201381189
4	47568	13.7	20.013004122067
4	48199	13.8	20.097543566322
4	48830	13.9	20.017669333988
4	49461	14	20.09224236598
4	50092	14.1	20.074816135396
4	50723	14.2	20.07559481363
4	51354	14.3	20.098618259535
4	51985	14.4	20.056642464257
4	52616	14.5	20.035589450591
4	53247	14.6	19.999618759681
4	53878	14.7	20.039889402802
4	54509	14.8	20.002994016758
4	55140	14.9	20.088124313999
4	55771	15	20.022425456131
4	56402	15.1	20.100635679548
4	57033	15.2	20.058602674482
4	57664	15.3	19.993341511332
4	58295	15.4	20.063439334282
4	58926	15.5	20.101392823081
4	59557	15.6	19.992556367856
4	60188	15.7	20.087637569045
4	60819	15.8	19.992825989546
4	61450	15.9	20.0859072006
4	62081	16	20.101397972694
4	62712	16.1	20.006034265189
4	63343	16.2	20.119828070921
4	63974	16.3	20.067206677038
4	64605	16.4	20.076036938129
4	65236	16.5	20.029274699816
4	65867	16.6	20.085190266268
4	66498	16.7	20.027244623427
4	67129	16.8	20.025165101471
4	67760	16.9	20.060246428913
4	68391	17	20.077828909941
4	69022	17.1	20.07376528264
4	69653	17.2	20.103750626789
4	70284	17.3	20.019321866073
4	70915	17.4	20.106965288452
4	71546	17.5	20.083457380284
4	72177	17.6	20.062991868574
4	72808	17.7	20.081837467127
4	73439	17.8	19.991859430159
4	74070	17.9	20.036581842613
4	74701	18	20.07503205115
4	75332	18.1	20.046732729913
4	75963	18.2	20.001348417555
4	76594	18.3	20.001770962875
4	77225	18.4	20.082075907073
4	77856	18.5	20.030265133046
4	78487	18.6	20.034943206529
4	79118	18.7	20.117589905807
4	79749	18.8	20.078614683233
4	80380	18.9	20.075856274678
4	81011	19	20.046053260171
4	81642	19.1	20.035685146817
4	82273	19.2	20.098397505837
4	82904	19.3	20.026906628662
4	83535	19.4	20.052868111164
4	84166	19.5	20.036130181854
4	84797	19.6	20.099053617655
3	2	0.1	416.34012864494
3	12	0.2	416.34012864494
3	22	0.3	414.32909879688
3	32	0.4	412.32635523805
3	42	0.5	410.32532505185
3	52	0.6	408.31715746981
3	62	0.7	406.30678545325
3	72	0.8	404.30147679624
3	82	0.9	402.29692840848
3	92	1	400.29658717781
3	102	1.1	398.2903195914
3	133	1.2	396.29002185936
3	164	1.3	394.27860079731
3	195	1.4	392.26987401564
3	226	1.5	390.2591409061
3	257	1.6	388.25622413748
3	288	1.7	386.24616465342
3	319	1.8	384.2401064964
3	350	1.9	382.23095967856
3	381	2	380.22361108015
3	412	2.1	378.21806593727
3	476	2.2	376.21798930835
3	540	2.3	374.21330497989
3	604	2.4	372.20658628799
3	668	2.5	370.19832277283
3	732	2.6	368.19399939179
3	796	2.7	366.18408937267
3	860	2.8	364.1819895241
3	924	2.9	362.17402290124
3	988	3	360.17368320646
3	1052	3.1	358.17390663858
3	1161	3.2	356.16381266876
3	1270	3.3	354.16237923478
3	1379	3.4	352.15595096813
3	1488	3.5	350.15423426221
3	1597	3.6	348.14258553471
3	1706	3.7	346.13795211311
3	1815	3.8	344.13392777252
3	1924	3.9	342.13047551096
3	2033	4	340.12984991367
3	2142	4.1	338.12276416414
3	2308	4.2	336.1207021868
3	2474	4.3	334.11775695007
3	2640	4.4	332.11500739581
3	2806	4.5	330.11356659145
3	2972	4.6	328.11030287651
3	3138	4.7	326.10909302227
3	3304	4.8	324.09794362986
3	3470	4.9	322.09014771224
3	3636	5	320.08665444983
3	3802	5.1	318.08663929077
3	4037	5.2	316.07563332645
3	4272	5.3	314.07268830902
3	4507	5.4	312.06185704181
3	4742	5.5	310.05460913294
3	4977	5.6	308.05331676528
3	5212	5.7	306.05177510008
3	5447	5.8	304.05148001434
3	5682	5.9	302.05099528666
3	5917	6	300.04208395784
3	6152	6.1	298.04009444412
3	6468	6.2	296.03467792383
3	6784	6.3	294.02903474136
3	7100	6.4	292.02153683539
3	7416	6.5	290.01145086017
3	7732	6.6	288.00309786125
3	8048	6.7	285.99472066948
3	8364	6.8	283.98988394156
3	8680	6.9	281.99041057203
3	8996	7	279.99134784302
3	9312	7.1	277.98382743328
3	9721	7.2	275.98249937675
3	10130	7.3	273.97784276595
3	10539	7.4	271.97289336906
3	10948	7.5	269.9674006023
3	11357	7.6	267.96842258798
3	11766	7.7	265.95785028736
3	12175	7.8	263.95497046391
3	12584	7.9	261.9534216985
3	12993	8	259.94723894456
3	13402	8.1	257.94024164666
3	13916	8.2	255.9393971166
3	14430	8.3	253.92803931837
3	14944	8.4	251.9219321382
3	15458	8.5	249.91094535695
3	15972	8.6	247.90297566311
3	16486	8.7	245.89341539464
3	17000	8.8	243.88527965882
3	17514	8.9	241.88371348612
3	18028	9	239.87193005502
3	18542	9.1	237.86881410739
3	19173	9.2	235.86486212028
3	19804	9.3	233.85587306497
3	20435	9.4	231.8475059083
3	21066	9.5	229.83610304731
3	21697	9.6	227.82495380817
3	22328	9.7	225.82256833265
3	22959	9.8	223.8213884277
3	23590	9.9	221.81816937241
3	24221	10	219.81754920241
3	24852	10.1	217.8100915662
3	25483	10.2	215.80434435275
3	26114	10.3	213.80108912366
3	26745	10.4	211.80035345859
3	27376	10.5	209.79065607855
3	28007	10.6	207.78509230988
3	28638	10.7	205.78134861203
3	29269	10.8	203.78069028912
3	29900	10.9	201.7743559283
3	30531	11	199.76522289344
3	31162	11.1	197.76486226253
3	31793	11.2	195.75642802156
3	32424	11.3	193.75742366872
3	33055	11.4	191.75518089979
3	33686	11.5	189.74773475998
3	34317	11.6	187.74856629252
3	34948	11.7	185.73912269166
3	35579	11.8	183.72726046601
3	36210	11.9	181.71786517183
3	36841	12	179.71018067059
3	37472	12.1	177.70044123677
3	38103	12.2	175.69228830849
3	38734	12.3	173.68050913242
3	39365	12.4	171.67423652549
3	39996	12.5	169.66853611275
3	40627	12.6	167.6635370157
3	41258	12.7	165.66127727893
3	41889	12.8	163.65404415464
3	42520	12.9	161.6460612543
3	43151	13	159.64003240207
3	43782	13.1	157.64055288311
3	44413	13.2	155.63518103049
3	45044	13.3	153.63432584822
3	45675	13.4	151.62894919463
3	46306	13.5	149.62607018732
3	46937	13.6	147.62459277722
3	47568	13.7	145.62232314662
3	48199	13.8	143.62107321621
3	48830	13.9	141.61136955463
3	49461	14	139.60965311479
3	50092	14.1	137.60047955987
3	50723	14.2	135.59304858404
3	51354	14.3	133.58553974236
3	51985	14.4	131.57572861416
3	52616	14.5	129.57011495961
3	53247	14.6	127.56660655332
3	53878	14.7	125.56669512539
3	54509	14.8	123.56275673472
3	55140	14.9	121.56250778959
3	55771	15	119.55374602948
3	56402	15.1	117.55155398943
3	57033	15.2	115.54154112432
3	57664	15.3	113.53573145369
3	58295	15.4	111.53644773476
3	58926	15.5	109.53015441035
3	59557	15.6	107.52006583279
3	60188	15.7	105.52086062623
3	60819	15.8	103.51214753938
3	61450	15.9	101.51291537133
3	62081	16	99.504375316959
3	62712	16.1	97.494286224457
3	63343	16.2	95.493733262155
3	63974	16.3	93.48180120632
3	64605	16.4	91.475131157137
3	65236	16.5	89.46757810412
3	65867	16.6	87.464701156978
3	66498	16.7	85.456232794236
3	67129	16.8	83.453558849612
3	67760	16.9	81.451092851939
3	68391	17	79.445118810012
3	69022	17.1	77.437386564334
3	69653	17.2	75.430060671135
3	70284	17.3	73.419736319158
3	70915	17.4	71.417854630285
3	71546	17.5	69.407208820251
3	72177	17.6	67.398913741735
3	72808	17.7	65.392665162768
3	73439	17.8	63.384532071482
3	74070	17.9	61.385396556928
3	74701	18	59.381788913939
3	75332	18.1	57.374336347084
3	75963	18.2	55.36971364097
3	76594	18.3	53.369629251612
3	77225	18.4	51.369502608788
3	77856	18.5	49.361345674109
3	78487	18.6	47.358369686143
3	79118	18.7	45.354925902628
3	79749	18.8	43.343217657658
3	80380	18.9	41.335406836633
3	81011	19	39.327871849504
3	81642	19.1	37.32331708865
3	82273	19.2	35.319799112979
3	82904	19.3	33.310010059594
3	83535	19.4	31.307369913594
3	84166	19.5	29.302133684831
3	84797	19.6	27.298571206778
2	2	0.1	26.697598627787
2	12	0.2	26.697598627787
2	22	0.3	26.716368172065
2	32	0.4	26.735060377921
2	42	0.5	26.753736592357
2	52	0.6	26.772479422248
2	62	0.7	26.791242826787
2	72	0.8	26.809958973473
2	82	0.9	26.828668024339
2	92	1	26.847337808547
2	102	1.1	26.866062905209
2	133	1.2	26.884732283431
2	164	1.3	26.903505479025
2	195	1.4	26.922253528094
2	226	1.5	26.941020302821
2	257	1.6	26.959714125297
2	288	1.7	26.978474612876
2	319	1.8	26.997197754871
2	350	1.9	27.015949724262
2	381	2	27.034684910333
2	412	2.1	27.053403264213
2	476	2.2	27.072070578814
2	540	2.3	27.090780898455
2	604	2.4	27.109510205419
2	668	2.5	27.128253930683
2	732	2.6	27.146960881493
2	796	2.7	27.165719974071
2	860	2.8	27.184406171987
2	924	2.9	27.203147126265
2	988	3	27.221816896138
2	1052	3.1	27.240481410179
2	1161	3.2	27.259242219624
2	1270	3.3	27.277922197693
2	1379	3.4	27.296648794032
2	1488	3.5	27.315331415962
2	1597	3.6	27.334106736427
2	1706	3.7	27.352816580939
2	1815	3.8	27.371520740715
2	1924	3.9	27.390219561107
2	2033	4	27.408891999393
2	2142	4.1	27.427624732217
2	2308	4.2	27.446310576669
2	2474	4.3	27.465004664846
2	2640	4.4	27.483696926659
2	2806	4.5	27.502376973518
2	2972	4.6	27.521074034147
2	3138	4.7	27.539751925479
2	3304	4.8	27.558522585499
2	3470	4.9	27.577261946535
2	3636	5	27.595961149599
2	3802	5.1	27.614627890483
2	4037	5.2	27.633397211846
2	4272	5.3	27.652091297976
2	4507	5.4	27.670858988839
2	4742	5.5	27.689593235144
2	4977	5.6	27.708271896598
2	5212	5.7	27.726952884821
2	5447	5.8	27.745622238345
2	5682	5.9	27.764293361853
2	5917	6	27.783043133355
2	6152	6.1	27.801728301483
2	6468	6.2	27.820445454889
2	6784	6.3	27.839164723802
2	7100	6.4	27.857901303406
2	7416	6.5	27.876662038235
2	7732	6.6	27.895406598677
2	8048	6.7	27.914151384918
2	8364	6.8	27.932863126949
2	8680	6.9	27.951524811148
2	8996	7	27.970182662717
2	9312	7.1	27.988919452354
2	9721	7.2	28.007598446904
2	10130	7.3	28.026308507847
2	10539	7.4	28.045021301452
2	10948	7.5	28.06373916649
2	11357	7.6	28.082396227391
2	11766	7.7	28.10116150124
2	12175	7.8	28.119854978895
2	12584	7.9	28.138536033387
2	12993	8	28.157260338282
2	13402	8.1	28.17599224556
2	13916	8.2	28.194666727212
2	14430	8.3	28.213439332346
2	14944	8.4	28.232162931889
2	15458	8.5	28.250932074211
2	15972	8.6	28.269673057151
2	16486	8.7	28.288428885402
2	17000	8.8	28.307171418062
2	17514	8.9	28.325852635021
2	18028	9	28.344629212715
2	18542	9.1	28.363324894187
2	19173	9.2	28.382028378667
2	19804	9.3	28.400778875614
2	20435	9.4	28.419523568194
2	21066	9.5	28.438296593913
2	21697	9.6	28.457067252503
2	22328	9.7	28.475756116261
2	22959	9.8	28.494433728067
2	23590	9.9	28.513130371874
2	24221	10	28.531802759506
2	24852	10.1	28.55053896326
2	25483	10.2	28.569259203125
2	26114	10.3	28.587956184553
2	26745	10.4	28.606629650136
2	27376	10.5	28.625386758089
2	28007	10.6	28.644105285809
2	28638	10.7	28.662806826263
2	29269	10.8	28.681479569988
2	29900	10.9	28.700205289875
2	30531	11	28.718957130627
2	31162	11.1	28.737627095903
2	31793	11.2	28.756372414601
2	32424	11.3	28.775029721327
2	33055	11.4	28.793717253161
2	33686	11.5	28.812453349616
2	34317	11.6	28.831112188073
2	34948	11.7	28.849866927429
2	35579	11.8	28.868644240536
2	36210	11.9	28.887398529032
2	36841	12	28.906136850185
2	37472	12.1	28.924894350639
2	38103	12.2	28.943637043762
2	38734	12.3	28.962413581742
2	39365	12.4	28.981138725262
2	39996	12.5	28.999858528322
2	40627	12.6	29.018571785793
2	41258	12.7	29.037259475993
2	41889	12.8	29.05599358431
2	42520	12.9	29.074734690511
2	43151	13	29.093457558995
2	43782	13.1	29.112119300589
2	44413	13.2	29.130836037099
2	45044	13.3	29.149510618171
2	45675	13.4	29.16822739949
2	46306	13.5	29.186920869528
2	46937	13.6	29.205601258039
2	47568	13.7	29.224289040581
2	48199	13.8	29.242967305956
2	48830	13.9	29.261724472537
2	49461	14	29.280407091984
2	50092	14.1	29.299159310921
2	50723	14.2	29.317895265845
2	51354	14.3	29.336631947515
2	51985	14.4	29.355390117114
2	52616	14.5	29.374109110434
2	53247	14.6	29.392808454841
2	53878	14.7	29.411474227571
2	54509	14.8	29.430177585151
2	55140	14.9	29.44884650803
2	55771	15	29.467594883563
2	56402	15.1	29.486281941929
2	57033	15.2	29.5050419944
2	57664	15.3	29.523762817197
2	58295	15.4	29.542422731331
2	58926	15.5	29.561148068213
2	59557	15.6	29.579908827331
2	60188	15.7	29.598568008685
2	60819	15.8	29.617315929935
2	61450	15.9	29.635975362929
2	62081	16	29.654721669216
2	62712	16.1	29.67348243314
2	63343	16.2	29.692154193502
2	63974	16.3	29.710932158355
2	64605	16.4	29.729661011323
2	65236	16.5	29.74839810563
2	65867	16.6	29.767091556439
2	66498	16.7	29.785837193606
2	67129	16.8	29.804528749732
2	67760	16.9	29.823218365027
2	68391	17	29.841940721951
2	69022	17.1	29.860679488717
2	69653	17.2	29.879414462873
2	70284	17.3	29.898177422544
2	70915	17.4	29.91686158431
2	71546	17.5	29.935627544245
2	72177	17.6	29.954371564099
2	72808	17.7	29.973096483358
2	73439	17.8	29.991838991336
2	74070	17.9	30.010497522234
2	74701	18	30.029197792847
2	75332	18.1	30.047933949287
2	75963	18.2	30.066643693788
2	76594	18.3	30.085311080819
2	77225	18.4	30.103978862214
2	77856	18.5	30.12272159273
2	78487	18.6	30.141415967917
2	79118	18.7	30.16011470918
2	79749	18.8	30.178890585139
2	80380	18.9	30.197630085272
2	81011	19	30.216367010965
2	81642	19.1	30.235076121313
2	82273	19.2	30.253775555034
2	82904	19.3	30.272533518602
2	83535	19.4	30.291224759276
2	84166	19.5	30.309940229968
2	84797	19.6	30.328640079043
13	164	1.3	2.3146371815822
13	195	1.4	3.8135495919698
13	226	1.5	0.973
13	257	1.6	5.4222388915099
13	288	1.7	0.973
13	319	1.8	1.6123383681316
13	350	1.9	5.1594679546701
13	381	2	0.973
13	412	2.1	3.3569346089939
13	476	2.2	1.7196433906618
13	540	2.3	6.0154902319806
13	604	2.4	0.97788254160816
13	668	2.5	1.937743935976
13	732	2.6	5.4588690741037
13	796	2.7	1.1273925790524
13	860	2.8	1.1047139412224
13	924	2.9	6.5774962360542
13	988	3	0.973
13	1052	3.1	1.199337036709
13	1161	3.2	3.2727389309525
13	1270	3.3	6.1254320791978
13	1379	3.4	1.090628204577
13	1488	3.5	4.6608563303825
13	1597	3.6	2.5419048529207
13	1706	3.7	3.6912736669428
13	1815	3.8	1.6390718077414
13	1924	3.9	2.0134465207595
13	2033	4	4.7669655349368
13	2142	4.1	3.2855493682142
13	2308	4.2	0.973
13	2474	4.3	5.8369686359556
13	2640	4.4	2.2254317719263
13	2806	4.5	3.3517627615753
13	2972	4.6	1.7757568687272
13	3138	4.7	3.4206964634708
13	3304	4.8	0.973
13	3470	4.9	3.5437219981028
13	3636	5	3.9905145242314
13	3802	5.1	5.5951961852325
13	4037	5.2	2.2952402756757
13	4272	5.3	0.973
13	4507	5.4	2.0134272841272
13	4742	5.5	5.4561860725679
13	4977	5.6	0.973
13	5212	5.7	2.7018882243092
13	5447	5.8	3.5172036228468
13	5682	5.9	5.5818806808592
13	5917	6	0.973
13	6152	6.1	4.3376745772271
13	6468	6.2	4.3693700891911
13	6784	6.3	3.3346886119805
13	7100	6.4	3.4437809108809
13	7416	6.5	3.282595701196
13	7732	6.6	0.973
13	8048	6.7	2.4453283110999
13	8364	6.8	8.037690913778
13	8680	6.9	0.973
13	8996	7	5.1283123489213
13	9312	7.1	0.973
13	9721	7.2	3.8800583767423
13	10130	7.3	2.6188455292813
13	10539	7.4	1.8713260374156
13	10948	7.5	2.2214266481093
13	11357	7.6	3.7171681426559
13	11766	7.7	6.2297676256387
13	12175	7.8	3.2760651618932
13	12584	7.9	2.4286032720219
13	12993	8	0.973
13	13402	8.1	2.0087421043721
13	13916	8.2	6.3149613348984
13	14430	8.3	3.4897785680225
13	14944	8.4	2.4241570543718
13	15458	8.5	0.973
13	15972	8.6	5.7410226815587
13	16486	8.7	1.7969701557496
13	17000	8.8	1.5292227303011
13	17514	8.9	6.2618519533973
13	18028	9	2.6146214518667
13	18542	9.1	0.973
13	19173	9.2	3.4344583164652
13	19804	9.3	3.9981152791796
13	20435	9.4	1.8367606348823
13	21066	9.5	4.8451463687637
13	21697	9.6	0.973
13	22328	9.7	3.5308038839148
13	22959	9.8	3.9553527508866
13	23590	9.9	6.3741420783321
13	24221	10	1.9562139912641
13	24852	10.1	1.8028559130443
13	25483	10.2	3.6067154285662
13	26114	10.3	3.0813891731445
13	26745	10.4	3.6825771140793
13	27376	10.5	3.0962038409828
13	28007	10.6	0.973
13	28638	10.7	5.5824595404404
13	29269	10.8	1.8912234965134
13	29900	10.9	7.17505577212
13	30531	11	0.973
13	31162	11.1	4.5249572257199
13	31793	11.2	5.3941396034589
13	32424	11.3	0.973
13	33055	11.4	4.014842749664
13	33686	11.5	2.8051567146386
13	34317	11.6	6.0575559257896
13	34948	11.7	0.973
13	35579	11.8	1.0266607279753
13	36210	11.9	4.0818481286651
13	36841	12	6.5958461576457
13	37472	12.1	0.973
13	38103	12.2	6.2646805851183
13	38734	12.3	1.3828157432261
13	39365	12.4	0.973
13	39996	12.5	5.4803163909778
13	40627	12.6	2.5870759022956
13	41258	12.7	3.2763668211089
13	41889	12.8	0.973
13	42520	12.9	5.321360750396
13	43151	13	5.236114212853
13	43782	13.1	0.973
13	44413	13.2	3.1062691500177
13	45044	13.3	3.2925962970143
13	45675	13.4	2.7987538400117
13	46306	13.5	3.233630921052
13	46937	13.6	3.6353040102774
13	47568	13.7	2.383722575417
13	48199	13.8	4.8757913233317
13	48830	13.9	3.3810709060229
13	49461	14	0.98139718481408
13	50092	14.1	1.6523390791087
13	50723	14.2	3.1702060981533
13	51354	14.3	4.9384802489884
13	51985	14.4	0.973
13	52616	14.5	4.8037028388033
13	53247	14.6	5.4938335329158
13	53878	14.7	0.973
13	54509	14.8	7.2991734204805
13	55140	14.9	0.973
13	55771	15	6.5272481881089
13	56402	15.1	0.973
13	57033	15.2	3.8784113161043
13	57664	15.3	3.4417608755064
13	58295	15.4	0.973
13	58926	15.5	3.3467962567525
13	59557	15.6	0.9256669327602
13	60188	15.7	8.9602381872385
13	60819	15.8	0.973
13	61450	15.9	1.4756012335039
13	62081	16	1.755952462933
13	62712	16.1	3.1298664141308
13	63343	16.2	6.9856482749282
13	63974	16.3	2.5516221531393
13	64605	16.4	0.78377414769888
13	65236	16.5	5.8965758960046
13	65867	16.6	1.3586479660877
13	66498	16.7	0.973
13	67129	16.8	4.750220400547
13	67760	16.9	1.211461760294
13	68391	17	4.1658007301685
13	69022	17.1	1.6179095524214
13	69653	17.2	5.1039982265872
13	70284	17.3	0.84959917693313
13	70915	17.4	2.3141323857535
13	71546	17.5	4.9185301172842
13	72177	17.6	4.4327483677331
13	72808	17.7	0.973
13	73439	17.8	6.4893732801428
13	74070	17.9	2.1908682431532
13	74701	18	5.5470971650725
13	75332	18.1	2.8168011136923
13	75963	18.2	0.973
13	76594	18.3	5.3146830293413
13	77225	18.4	1.0706153389719
13	77856	18.5	2.8442907768009
13	78487	18.6	3.708347708969
13	79118	18.7	3.8875043025361
13	79749	18.8	0.973
13	80380	18.9	0.973
13	81011	19	6.3523838375213
13	81642	19.1	0.973
13	82273	19.2	4.0397230894417
13	82904	19.3	2.7634742761612
13	83535	19.4	3.9067573168781
13	84166	19.5	0.95487794438445
13	84797	19.6	3.5075976735062
13	85428	19.7	1.9338849582992
13	85942	19.8	6.622392426028
13	86456	19.9	0.973
13	86970	20	2.4939316004925
13	87484	20.1	4.02403517767
13	87998	20.2	6.4134657346417
13	88512	20.3	2.713932688296
13	89026	20.4	1.8509105760449
13	89540	20.5	1.0876503769321
13	90054	20.6	4.8150365705503
12	164	1.3	-0.106154831429
12	195	1.4	0.20250837185884
12	226	1.5	-0.50614541966933
12	257	1.6	0.53421371364966
12	288	1.7	-0.55504411307631
12	319	1.8	-0.2500040776329
12	350	1.9	0.48185379791541
12	381	2	-0.5170979053015
12	412	2.1	0.11100972006098
12	476	2.2	-0.22745263248215
12	540	2.3	0.6585461082868
12	604	2.4	-0.38157535446807
12	668	2.5	-0.18247576232532
12	732	2.6	0.54368315555621
12	796	2.7	-0.35064757657238
12	860	2.8	-0.35479822910855
12	924	2.9	0.77429669597183
12	988	3	-0.64540338322985
12	1052	3.1	-0.33484542353545
12	1161	3.2	0.095109723042697
12	1270	3.3	0.68229207426775
12	1379	3.4	-0.35804190877826
12	1488	3.5	0.37939997571524
12	1597	3.6	-0.058441700134431
12	1706	3.7	0.17846963789779
12	1815	3.8	-0.24498606333509
12	1924	3.9	-0.16713645458221
12	2033	4	0.40075801026543
12	2142	4.1	0.094337319815523
12	2308	4.2	-0.82632006562783
12	2474	4.3	0.62252442669124
12	2640	4.4	-0.12370274672282
12	2806	4.5	0.10885167336088
12	2972	4.6	-0.21647532740605
12	3138	4.7	0.1234669143334
12	3304	4.8	-0.47044090991839
12	3470	4.9	0.15020871483721
12	3636	5	0.24167448743246
12	3802	5.1	0.57018602574246
12	4037	5.2	-0.11035904104357
12	4272	5.3	-0.52184176037553
12	4507	5.4	-0.16683426508681
12	4742	5.5	0.54304264446255
12	4977	5.6	-0.60116267614067
12	5212	5.7	-0.023962672636841
12	5447	5.8	0.14441278218293
12	5682	5.9	0.56847048697527
12	5917	6	-0.76512295803987
12	6152	6.1	0.31374508030712
12	6468	6.2	0.31874371885788
12	6784	6.3	0.10454740989953
12	7100	6.4	0.12657892222052
12	7416	6.5	0.092960975272582
12	7732	6.6	-1.1032165354584
12	8048	6.7	-0.076326227188126
12	8364	6.8	1.0748284659814
12	8680	6.9	-0.92014525721314
12	8996	7	0.4768353807507
12	9312	7.1	-0.51148979486896
12	9721	7.2	0.21990310058463
12	10130	7.3	-0.041244210908182
12	10539	7.4	-0.19567896493246
12	10948	7.5	-0.12273593798746
12	11357	7.6	0.18688993821851
12	11766	7.7	0.70305695137943
12	12175	7.8	0.092430384783064
12	12584	7.9	-0.082348672114314
12	12993	8	-0.72490279262421
12	13402	8.1	-0.16689558348151
12	13916	8.2	0.72176262249705
12	14430	8.3	0.13702637867535
12	14944	8.4	-0.082931988220665
12	15458	8.5	-0.6704895123141
12	15972	8.6	0.60316741247664
12	16486	8.7	-0.21195903732444
12	17000	8.8	-0.26686039522755
12	17514	8.9	0.7092942387564
12	18028	9	-0.043926652846835
12	18542	9.1	-0.54339617420922
12	19173	9.2	0.12709025198131
12	19804	9.3	0.24268794427623
12	20435	9.4	-0.20377024651971
12	21066	9.5	0.4166904079495
12	21697	9.6	-0.94209279948846
12	22328	9.7	0.14840254646263
12	22959	9.8	0.23539079499894
12	23590	9.9	0.73131825400051
12	24221	10	-0.18003207969013
12	24852	10.1	-0.21123512734192
12	25483	10.2	0.16111416008791
12	26114	10.3	0.052384736691593
12	26745	10.4	0.17583371996878
12	27376	10.5	0.054619685560482
12	28007	10.6	-1.1827015236719
12	28638	10.7	0.57136045135561
12	29269	10.8	-0.19211952602493
12	29900	10.9	0.89548958577215
12	30531	11	-1.0683862997685
12	31162	11.1	0.35256509631875
12	31793	11.2	0.52931089294141
12	32424	11.3	-0.77378384403417
12	33055	11.4	0.24697500492909
12	33686	11.5	-0.0033803069265304
12	34317	11.6	0.66536235408858
12	34948	11.7	-0.64130260627717
12	35579	11.8	-0.37097562311683
12	36210	11.9	0.2612531095976
12	36841	12	0.77622399621177
12	37472	12.1	-0.87837471663953
12	38103	12.2	0.70907393263187
12	38734	12.3	-0.29817031277343
12	39365	12.4	-0.6912240036996
12	39996	12.5	0.54980784785002
12	40627	12.6	-0.048618047754303
12	41258	12.7	0.093668726994665
12	41889	12.8	-0.60951287338977
12	42520	12.9	0.51719996742907
12	43151	13	0.49668514896183
12	43782	13.1	-0.77539853139314
12	44413	13.2	0.0596061394317
12	45044	13.3	0.097835114039455
12	45675	13.4	-0.0044060913147348
12	46306	13.5	0.085323843895466
12	46937	13.6	0.16776624142658
12	47568	13.7	-0.090807718480939
12	48199	13.8	0.42250880762005
12	48830	13.9	0.11346439754124
12	49461	14	-0.38116404737814
12	50092	14.1	-0.24194700310471
12	50723	14.2	0.071969947288757
12	51354	14.3	0.43546388510148
12	51985	14.4	-0.86898093742786
12	52616	14.5	0.41008852969391
12	53247	14.6	0.54957725999412
12	53878	14.7	-0.80715417829342
12	54509	14.8	0.92124943870584
12	55140	14.9	-0.89320027802604
12	55771	15	0.76296027791685
12	56402	15.1	-0.70395243663803
12	57033	15.2	0.21840005759149
12	57664	15.3	0.12755918537732
12	58295	15.4	-0.47930604002904
12	58926	15.5	0.10934735578484
12	59557	15.6	-0.39163708058187
12	60188	15.7	1.263719880674
12	60819	15.8	-0.59101396256594
12	61450	15.9	-0.27825563517396
12	62081	16	-0.21970063683113
12	62712	16.1	0.064963485370413
12	63343	16.2	0.85773671625645
12	63974	16.3	-0.057325353333724
12	64605	16.4	-0.42182658058589
12	65236	16.5	0.63195333341135
12	65867	16.6	-0.30347189721649
12	66498	16.7	-0.70208932631651
12	67129	16.8	0.39871793000493
12	67760	16.9	-0.33283089096656
12	68391	17	0.27807057551108
12	69022	17.1	-0.24866618372034
12	69653	17.2	0.47095984269397
12	70284	17.3	-0.40793413876091
12	70915	17.4	-0.10429924270138
12	71546	17.5	0.43305486505854
12	72177	17.6	0.33096008440477
12	72808	17.7	-1.0779173824238
12	73439	17.8	0.75780947373715
12	74070	17.9	-0.13067496526055
12	74701	18	0.5603466185741
12	75332	18.1	-0.0029990846989492
12	75963	18.2	-0.47290836775211
12	76594	18.3	0.51217907494866
12	77225	18.4	-0.36281835974659
12	77856	18.5	0.0037357402266736
12	78487	18.6	0.18154288763181
12	79118	18.7	0.21757949800229
12	79749	18.8	-0.63759763920679
12	80380	18.9	-0.54204693404024
12	81011	19	0.72909855747128
12	81642	19.1	-0.52715486965607
12	82273	19.2	0.25227927414235
12	82904	19.3	-0.011869737203227
12	83535	19.4	0.22381756750399
12	84166	19.5	-0.38605385860429
12	84797	19.6	0.14225545374213
12	85428	19.7	-0.18312257158104
12	85942	19.8	0.78280282933264
12	86456	19.9	-0.9554019012954
12	86970	20	-0.066357442550355
12	87484	20.1	0.24995954313781
12	87998	20.2	0.73989942593034
12	88512	20.3	-0.023797630704934
12	89026	20.4	-0.20152676904107
12	89540	20.5	-0.35873622272632
12	90054	20.6	0.41082850804088
11	133	1.2	20.103673908922
11	164	1.3	20.093058425779
11	195	1.4	20.113309262965
11	226	1.5	20.062694720998
11	257	1.6	20.116116092363
11	288	1.7	20.060611681056
11	319	1.8	20.035611273292
11	350	1.9	20.083796653084
11	381	2	20.032086862554
11	412	2.1	20.04318783456
11	476	2.2	20.020442571312
11	540	2.3	20.08629718214
11	604	2.4	20.048139646694
11	668	2.5	20.029892070461
11	732	2.6	20.084260386017
11	796	2.7	20.049195628359
11	860	2.8	20.013715805449
11	924	2.9	20.091145475046
11	988	3	20.026605136723
11	1052	3.1	19.993120594369
11	1161	3.2	20.002631566674
11	1270	3.3	20.0708607741
11	1379	3.4	20.035056583222
11	1488	3.5	20.072996580794
11	1597	3.6	20.067152410781
11	1706	3.7	20.08499937457
11	1815	3.8	20.060500768237
11	1924	3.9	20.043787122779
11	2033	4	20.083862923805
11	2142	4.1	20.093296655787
11	2308	4.2	20.010664649224
11	2474	4.3	20.072917091893
11	2640	4.4	20.060546817221
11	2806	4.5	20.071431984557
11	2972	4.6	20.049784451816
11	3138	4.7	20.06213114325
11	3304	4.8	20.015087052258
11	3470	4.9	20.030107923741
11	3636	5	20.054275372485
11	3802	5.1	20.111293975059
11	4037	5.2	20.100258070955
11	4272	5.3	20.048073894917
11	4507	5.4	20.031390468408
11	4742	5.5	20.085694732855
11	4977	5.6	20.025578465241
11	5212	5.7	20.023182197977
11	5447	5.8	20.037623476195
11	5682	5.9	20.094470524893
11	5917	6	20.017958229089
11	6152	6.1	20.049332737119
11	6468	6.2	20.081207109005
11	6784	6.3	20.091661849995
11	7100	6.4	20.104319742217
11	7416	6.5	20.113615839744
11	7732	6.6	20.003294186199
11	8048	6.7	19.99566156348
11	8364	6.8	20.103144410078
11	8680	6.9	20.011129884357
11	8996	7	20.058813422432
11	9312	7.1	20.007664442945
11	9721	7.2	20.029654753003
11	10130	7.3	20.025530331912
11	10539	7.4	20.005962435419
11	10948	7.5	19.99368884162
11	11357	7.6	20.012377835442
11	11766	7.7	20.08268353058
11	12175	7.8	20.091926569059
11	12584	7.9	20.083691701847
11	12993	8	20.011201422585
11	13402	8.1	19.994511864237
11	13916	8.2	20.066688126486
11	14430	8.3	20.080390764354
11	14944	8.4	20.072097565532
11	15458	8.5	20.0050486143
11	15972	8.6	20.065365355548
11	16486	8.7	20.044169451816
11	17000	8.8	20.017483412293
11	17514	8.9	20.088412836168
11	18028	9	20.084020170884
11	18542	9.1	20.029680553463
11	19173	9.2	20.042389578661
11	19804	9.3	20.066658373089
11	20435	9.4	20.046281348437
11	21066	9.5	20.087950389232
11	21697	9.6	19.993741109283
11	22328	9.7	20.008581363929
11	22959	9.8	20.032120443429
11	23590	9.9	20.105252268829
11	24221	10	20.08724906086
11	24852	10.1	20.066125548126
11	25483	10.2	20.082236964135
11	26114	10.3	20.087475437804
11	26745	10.4	20.105058809801
11	27376	10.5	20.110520778357
11	28007	10.6	19.992250625989
11	28638	10.7	20.049386671125
11	29269	10.8	20.030174718522
11	29900	10.9	20.1197236771
11	30531	11	20.012885047123
11	31162	11.1	20.048141556755
11	31793	11.2	20.101072646049
11	32424	11.3	20.023694261645
11	33055	11.4	20.048391762138
11	33686	11.5	20.048053731446
11	34317	11.6	20.114589966855
11	34948	11.7	20.050459706227
11	35579	11.8	20.013362143915
11	36210	11.9	20.039487454875
11	36841	12	20.117109854496
11	37472	12.1	20.029272382832
11	38103	12.2	20.100179776095
11	38734	12.3	20.070362744818
11	39365	12.4	20.001240344448
11	39996	12.5	20.056221129233
11	40627	12.6	20.051359324458
11	41258	12.7	20.060726197157
11	41889	12.8	19.999774909818
11	42520	12.9	20.051494906561
11	43151	13	20.101163421457
11	43782	13.1	20.023623568318
11	44413	13.2	20.029584182261
11	45044	13.3	20.039367693665
11	45675	13.4	20.038927084533
11	46306	13.5	20.047459468923
11	46937	13.6	20.064236093066
11	47568	13.7	20.055155321218
11	48199	13.8	20.09740620198
11	48830	13.9	20.108752641734
11	49461	14	20.070636236996
11	50092	14.1	20.046441536685
11	50723	14.2	20.053638531414
11	51354	14.3	20.097184919924
11	51985	14.4	20.010286826182
11	52616	14.5	20.051295679151
11	53247	14.6	20.10625340515
11	53878	14.7	20.025537987321
11	54509	14.8	20.117662931192
11	55140	14.9	20.028342903389
11	55771	15	20.104638931181
11	56402	15.1	20.034243687517
11	57033	15.2	20.056083693276
11	57664	15.3	20.068839611814
11	58295	15.4	20.020909007811
11	58926	15.5	20.031843743389
11	59557	15.6	19.992680035331
11	60188	15.7	20.119052023399
11	60819	15.8	20.059950627142
11	61450	15.9	20.032125063625
11	62081	16	20.010154999942
11	62712	16.1	20.016651348479
11	63343	16.2	20.102425020104
11	63974	16.3	20.096692484771
11	64605	16.4	20.054509826712
11	65236	16.5	20.117705160053
11	65867	16.6	20.087357970332
11	66498	16.7	20.0171490377
11	67129	16.8	20.057020830701
11	67760	16.9	20.023737741604
11	68391	17	20.051544799155
11	69022	17.1	20.026678180783
11	69653	17.2	20.073774165052
11	70284	17.3	20.032980751176
11	70915	17.4	20.022550826906
11	71546	17.5	20.065856313412
11	72177	17.6	20.098952321853
11	72808	17.7	19.99116058361
11	73439	17.8	20.066941530984
11	74070	17.9	20.053874034458
11	74701	18	20.109908696315
11	75332	18.1	20.109608787845
11	75963	18.2	20.06231795107
11	76594	18.3	20.113535858565
11	77225	18.4	20.07725402259
11	77856	18.5	20.077627596613
11	78487	18.6	20.095781885376
11	79118	18.7	20.117539835176
11	79749	18.8	20.053780071256
11	80380	18.9	19.999575377852
11	81011	19	20.072485233599
11	81642	19.1	20.019769746633
11	82273	19.2	20.044997674047
11	82904	19.3	20.043810700327
11	83535	19.4	20.066192457078
11	84166	19.5	20.027587071217
11	84797	19.6	20.041812616591
11	85428	19.7	20.023500359433
11	85942	19.8	20.101780642367
11	86456	19.9	20.006240452237
11	86970	20	19.999604707982
11	87484	20.1	20.024600662296
11	87998	20.2	20.098590604889
11	88512	20.3	20.096210841818
11	89026	20.4	20.076058164914
11	89540	20.5	20.040184542642
11	90054	20.6	20.081267393446
10	102	1.1	416.30025728988
10	133	1.2	416.30025728988
10	164	1.3	414.28999132
10	195	1.4	412.28078684489
10	226	1.5	410.26955738822
10	257	1.6	408.2633891304
10	288	1.7	406.25187900495
10	319	1.8	404.24591904062
10	350	1.9	402.24245899093
10	381	2	400.23418064636
10	412	2.1	398.23107301997
10	476	2.2	396.22685535239
10	540	2.3	394.22491209638
10	604	2.4	392.21638371152
10	668	2.5	390.2116708877
10	732	2.6	388.20878272945
10	796	2.7	386.20045801393
10	860	2.8	384.19563959727
10	924	2.9	382.19436898391
10	988	3	380.18535579422
10	1052	3.1	378.18279631276
10	1161	3.2	376.18358511661
10	1270	3.3	374.18342287121
10	1379	3.4	372.17643804928
10	1488	3.5	370.1730334658
10	1597	3.6	368.16583507398
10	1706	3.7	366.15922106967
10	1815	3.8	364.15082245902
10	1924	3.9	362.1448735854
10	2033	4	360.14059599202
10	2142	4.1	358.13231102071
10	2308	4.2	356.1230827238
10	2474	4.3	354.12211721067
10	2640	4.4	352.11492676733
10	2806	4.5	350.10897328906
10	2972	4.6	348.10193134896
10	3138	4.7	346.09705405293
10	3304	4.8	344.09094215004
10	3470	4.9	342.08953441892
10	3636	5	340.08662467643
10	3802	5.1	338.08129831099
10	4037	5.2	336.07027037294
10	4272	5.3	334.06034596963
10	4507	5.4	332.05563972066
10	4742	5.5	330.05260173017
10	4977	5.6	328.0441335872
10	5212	5.7	326.04167676771
10	5447	5.8	324.03945956285
10	5682	5.9	322.03579830303
10	5917	6	320.02645262513
10	6152	6.1	318.02475779081
10	6468	6.2	316.01992566397
10	6784	6.3	314.01190626074
10	7100	6.4	312.00284143616
10	7416	6.5	309.99251088621
10	7732	6.6	307.98125077341
10	8048	6.7	305.9810222694
10	8364	6.8	303.98155698916
10	8680	6.9	301.9713439665
10	8996	7	299.9703319322
10	9312	7.1	297.96455178466
10	9721	7.2	295.96388627702
10	10130	7.3	293.96102184932
10	10539	7.4	291.95856984292
10	10948	7.5	289.95807452745
10	11357	7.6	287.95880650944
10	11766	7.7	285.95766968633
10	12175	7.8	283.9495026484
10	12584	7.9	281.94041135324
10	12993	8	279.93214350327
10	13402	8.1	277.93112431551
10	13916	8.2	275.93177399939
10	14430	8.3	273.92520642117
10	14944	8.4	271.91726864829
10	15458	8.5	269.91016015345
10	15972	8.6	267.90975621549
10	16486	8.7	265.90332090768
10	17000	8.8	263.89900508333
10	17514	8.9	261.89735772829
10	18028	9	259.8886177887
10	18542	9.1	257.88031709348
10	19173	9.2	255.87745008586
10	19804	9.3	253.87331223984
10	20435	9.4	251.8667476368
10	21066	9.5	249.86222063344
10	21697	9.6	247.85352693621
10	22328	9.7	245.85425369169
10	22959	9.8	243.85349649659
10	23590	9.9	241.85038551228
10	24221	10	239.83996171438
10	24852	10.1	237.83133814644
10	25483	10.2	235.82482682322
10	26114	10.3	233.81670443968
10	26745	10.4	231.80805823519
10	27376	10.5	229.79765378222
10	28007	10.6	227.78670315994
10	28638	10.7	225.78757895624
10	29269	10.8	223.78274143627
10	29900	10.9	221.77982501464
10	30531	11	219.76795414891
10	31162	11.1	217.7667666072
10	31793	11.2	215.76205359238
10	32424	11.3	213.75204773567
10	33055	11.4	211.74977932703
10	33686	11.5	209.74504129294
10	34317	11.6	207.74033706022
10	34948	11.7	205.72897953962
10	35579	11.8	203.72403472155
10	36210	11.9	201.72279947256
10	36841	12	199.71895182428
10	37472	12.1	197.70734232763
10	38103	12.2	195.70451613501
10	38734	12.3	193.69459956079
10	39365	12.4	191.68766453928
10	39996	12.5	189.68764140908
10	40627	12.6	187.68212047778
10	41258	12.7	185.67708570243
10	41889	12.8	183.67111428706
10	42520	12.9	181.67123769294
10	43151	13	179.66618936006
10	43782	13.1	177.65617442627
10	44413	13.2	175.65391308661
10	45044	13.3	173.65105571562
10	45675	13.4	171.64722004285
10	46306	13.5	169.64342842877
10	46937	13.6	167.6387836193
10	47568	13.7	165.63246123205
10	48199	13.8	163.62704687618
10	48830	13.9	161.61740764537
10	49461	14	159.60663382784
10	50092	14.1	157.59967145848
10	50723	14.2	155.5951284371
10	51354	14.3	153.58986575255
10	51985	14.4	151.58024864884
10	52616	14.5	149.57932091611
10	53247	14.6	147.57429250497
10	53878	14.7	145.56376859848
10	54509	14.8	143.56131582658
10	55140	14.9	141.54965102505
10	55771	15	139.54691777569
10	56402	15.1	137.53655530846
10	57033	15.2	135.53323201046
10	57664	15.3	133.52772482206
10	58295	15.4	131.52094210616
10	58926	15.5	129.51895220885
10	59557	15.6	127.51586889315
10	60188	15.7	125.51670175068
10	60819	15.8	123.50489804694
10	61450	15.9	121.49900418466
10	62081	16	119.49589273836
10	62712	16.1	117.49497818759
10	63343	16.2	115.49341403474
10	63974	16.3	113.48327294744
10	64605	16.4	111.47370508476
10	65236	16.5	109.46835527508
10	65867	16.6	107.45668625088
10	66498	16.7	105.44805179255
10	67129	16.8	103.44643787329
10	67760	16.9	101.44083697587
10	68391	17	99.438564219459
10	69022	17.1	97.433510897574
10	69653	17.2	95.430944112077
10	70284	17.3	93.423667965747
10	70915	17.4	91.420470955006
10	71546	17.5	89.418316884074
10	72177	17.6	87.411832482963
10	72808	17.7	85.402038647975
10	73439	17.8	83.403023443012
10	74070	17.9	81.396430525619
10	74701	18	79.391144291954
10	75332	18.1	77.380254874793
10	75963	18.2	75.369395446966
10	76594	18.3	73.363264864239
10	77225	18.4	71.352012749152
10	77856	18.5	69.344388634624
10	78487	18.6	67.336727164578
10	79118	18.7	65.327250357242
10	79749	18.8	63.315597864694
10	80380	18.9	61.310321026875
10	81011	19	59.31046438494
10	81642	19.1	57.303317125253
10	82273	19.2	55.301441148318
10	82904	19.3	53.297042505914
10	83535	19.4	51.292762554894
10	84166	19.5	49.286244541113
10	84797	19.6	47.283586871158
10	85428	19.7	45.279506718431
10	85942	19.8	43.277257699037
10	86456	19.9	41.267181046265
10	86970	20	39.266657930516
10	87484	20.1	37.266798355716
10	87998	20.2	35.264439311586
10	88512	20.3	33.254681646469
10	89026	20.4	31.245161945654
10	89540	20.5	29.23765741086
10	90054	20.6	27.233740057315
9	102	1.1	23.397598627787
9	133	1.2	23.397598627787
9	164	1.3	23.416361515857
9	195	1.4	23.435114496428
9	226	1.5	23.453886377235
9	257	1.6	23.472611019165
9	288	1.7	23.491385519605
9	319	1.8	23.51010821742
9	350	1.9	23.528807582195
9	381	2	23.547551918693
9	412	2.1	23.566247994113
9	476	2.2	23.58495443014
9	540	2.3	23.603639637867
9	604	2.4	23.622386308126
9	668	2.5	23.641097365712
9	732	2.6	23.659791392717
9	796	2.7	23.678536162021
9	860	2.8	23.697248205161
9	924	2.9	23.715927134755
9	988	3	23.734678329957
9	1052	3.1	23.753369289246
9	1161	3.2	23.772028997196
9	1270	3.3	23.790697581798
9	1379	3.4	23.809429845158
9	1488	3.5	23.828128692237
9	1597	3.6	23.846862948959
9	1706	3.7	23.86559175128
9	1815	3.8	23.884337210286
9	1924	3.9	23.903059804586
9	2033	4	23.921766799933
9	2142	4.1	23.940511198283
9	2308	4.2	23.959264401196
9	2474	4.3	23.977940483125
9	2640	4.4	23.99667466566
9	2806	4.5	24.015397302938
9	2972	4.6	24.034130099412
9	3138	4.7	24.052842692105
9	3304	4.8	24.071566808044
9	3470	4.9	24.090247017431
9	3636	5	24.108941245894
9	3802	5.1	24.127658029992
9	4037	5.2	24.146428029918
9	4272	5.3	24.165187729964
9	4507	5.4	24.183898726183
9	4742	5.5	24.202594151653
9	4977	5.6	24.221340259642
9	5212	5.7	24.240030260732
9	5447	5.8	24.258718025371
9	5682	5.9	24.277419268147
9	5917	6	24.296173566639
9	6152	6.1	24.314856455714
9	6468	6.2	24.333568626818
9	6784	6.3	24.352310546479
9	7100	6.4	24.371062223617
9	7416	6.5	24.389825714447
9	7732	6.6	24.408597881384
9	8048	6.7	24.427267084414
9	8364	6.8	24.445929163867
9	8680	6.9	24.464691557752
9	8996	7	24.483368073888
9	9312	7.1	24.502089093378
9	9721	7.2	24.520762375196
9	10130	7.3	24.539456180711
9	10539	7.4	24.558146136878
9	10948	7.5	24.576817830201
9	11357	7.6	24.595478068501
9	11766	7.7	24.614155749358
9	12175	7.8	24.632899046973
9	12584	7.9	24.651650971175
9	12993	8	24.670395209722
9	13402	8.1	24.689071792626
9	13916	8.2	24.707732799057
9	14430	8.3	24.726461168058
9	14944	8.4	24.745202325819
9	15458	8.5	24.763935743485
9	15972	8.6	24.782606583933
9	16486	8.7	24.801333718383
9	17000	8.8	24.820041070561
9	17514	8.9	24.838723516486
9	18028	9	24.857472161298
9	18542	9.1	24.876216706408
9	19173	9.2	24.894910536003
9	19804	9.3	24.913616227013
9	20435	9.4	24.932344568245
9	21066	9.5	24.951053891469
9	21697	9.6	24.969802104677
9	22328	9.7	24.988462391758
9	22959	9.8	25.007136529344
9	23590	9.9	25.025832636105
9	24221	10	25.044596997268
9	24852	10.1	25.063344555921
9	25483	10.2	25.082072399864
9	26114	10.3	25.100815280695
9	26745	10.4	25.119563050628
9	27376	10.5	25.138327231234
9	28007	10.6	25.157096509531
9	28638	10.7	25.175755405534
9	29269	10.8	25.194467626976
9	29900	10.9	25.213161917779
9	30531	11	25.2319397852
9	31162	11.1	25.250617939441
9	31793	11.2	25.26932899881
9	32424	11.3	25.288089459104
9	33055	11.4	25.306777701655
9	33686	11.5	25.325488994541
9	34317	11.6	25.344199971942
9	34948	11.7	25.362973048038
9	35579	11.8	25.381686270951
9	36210	11.9	25.400364870469
9	36841	12	25.419067852909
9	37472	12.1	25.437843280833
9	38103	12.2	25.45653672948
9	38734	12.3	25.475296356453
9	39365	12.4	25.494028154999
9	39996	12.5	25.512695441164
9	40627	12.6	25.53141404125
9	41258	12.7	25.550128103781
9	41889	12.8	25.568850908476
9	42520	12.9	25.587516826941
9	43151	13	25.606231016013
9	43782	13.1	25.624991561028
9	44413	13.2	25.6436797376
9	45044	13.3	25.662373477252
9	45675	13.4	25.681076347917
9	46306	13.5	25.69977880736
9	46937	13.6	25.718489230131
9	47568	13.7	25.737215310634
9	48199	13.8	25.755932915994
9	48830	13.9	25.774689954372
9	49461	14	25.793457582455
9	50092	14.1	25.812189636253
9	50723	14.2	25.830899108982
9	51354	14.3	25.849615298712
9	51985	14.4	25.868372130567
9	52616	14.5	25.887047859872
9	53247	14.6	25.905761863003
9	53878	14.7	25.924527158533
9	54509	14.8	25.943217121845
9	55140	14.9	25.961993065959
9	55771	15	25.980685647117
9	56402	15.1	25.999449435848
9	57033	15.2	26.018147524245
9	57664	15.3	26.036865996061
9	58295	15.4	26.055596373057
9	58926	15.5	26.074282016112
9	59557	15.6	26.092977864627
9	60188	15.7	26.111637161401
9	60819	15.8	26.130414401963
9	61450	15.9	26.149136482813
9	62081	16	26.167832593885
9	62712	16.1	26.186508200156
9	63343	16.2	26.205189869511
9	63974	16.3	26.223951591984
9	64605	16.4	26.242707964246
9	65236	16.5	26.261424967162
9	65867	16.6	26.280200950688
9	66498	16.7	26.298948610987
9	67129	16.8	26.317630744838
9	67760	16.9	26.33635009129
9	68391	17	26.355038374421
9	69022	17.1	26.373752610057
9	69653	17.2	26.392443637519
9	70284	17.3	26.411178619966
9	70915	17.4	26.429875529657
9	71546	17.5	26.448562705032
9	72177	17.6	26.467290297697
9	72808	17.7	26.486048779079
9	73439	17.8	26.504706657739
9	74070	17.9	26.523435263244
9	74701	18	26.542151672771
9	75332	18.1	26.560920379807
9	75963	18.2	26.579688806938
9	76594	18.3	26.598413097226
9	77225	18.4	26.617185189517
9	77856	18.5	26.635923419736
9	78487	18.6	26.654661998615
9	79118	18.7	26.673417521009
9	79749	18.8	26.692193350236
9	80380	18.9	26.710909672066
9	81011	19	26.729575404308
9	81642	19.1	26.748309183786
9	82273	19.2	26.766993763562
9	82904	19.3	26.785701888724
9	83535	19.4	26.804408906077
9	84166	19.5	26.823136812466
9	84797	19.6	26.841828688201
9	85428	19.7	26.860533840729
9	85942	19.8	26.87922190231
9	86456	19.9	26.897983023381
9	86970	20	26.91665497618
9	87484	20.1	26.935320735795
9	87998	20.2	26.954009824295
9	88512	20.3	26.972767968085
9	89026	20.4	26.991523890826
9	89540	20.5	27.010261004944
9	90054	20.6	27.02896463798
20	540	2.3	6.3357732903628
20	604	2.4	3.5107216069246
20	668	2.5	1.9809714692426
20	732	2.6	2.7345813481585
20	796	2.7	0.77401171450988
20	860	2.8	6.1172278286508
20	924	2.9	2.0050849796413
20	988	3	5.1479326188515
20	1052	3.1	0.973
20	1161	3.2	1.7285660393512
20	1270	3.3	7.5782227493625
20	1379	3.4	0.973
20	1488	3.5	4.9230132062118
20	1597	3.6	1.2905438667848
20	1706	3.7	3.9414856326061
20	1815	3.8	0.973
20	1924	3.9	6.4579000922117
20	2033	4	1.7479481215696
20	2142	4.1	4.4230730784299
20	2308	4.2	1.0495794032517
20	2474	4.3	2.6180230971947
20	2640	4.4	1.7324692019349
20	2806	4.5	4.0788574258456
20	2972	4.6	3.8545856985602
20	3138	4.7	2.9748262099835
20	3304	4.8	3.279363220701
20	3470	4.9	4.1216934169197
20	3636	5	0.973
20	3802	5.1	4.8366137906467
20	4037	5.2	3.7626440876863
20	4272	5.3	0.973
20	4507	5.4	4.3551270330676
20	4742	5.5	1.9879255317933
20	4977	5.6	2.7972619190699
20	5212	5.7	2.363642231334
20	5447	5.8	5.0897916012175
20	5682	5.9	1.7336062135068
20	5917	6	2.0298137866247
20	6152	6.1	5.0981397912533
20	6468	6.2	0.973
20	6784	6.3	7.9555823575153
20	7100	6.4	0.973
20	7416	6.5	4.5071519821798
20	7732	6.6	6.5102407477489
20	8048	6.7	3.3115539149484
20	8364	6.8	1.8951657083413
20	8680	6.9	2.5636058286142
20	8996	7	2.3248755065935
20	9312	7.1	0.973
20	9721	7.2	2.9052854172372
20	10130	7.3	5.4266676753774
20	10539	7.4	0.973
20	10948	7.5	7.0791899807678
20	11357	7.6	0.973
20	11766	7.7	1.7281912013865
20	12175	7.8	2.9650553785234
20	12584	7.9	4.7619054928893
20	12993	8	1.3396990201847
20	13402	8.1	5.5421819889509
20	13916	8.2	4.8556947031963
20	14430	8.3	1.9848674722967
20	14944	8.4	0.973
20	15458	8.5	7.4581152380851
20	15972	8.6	0.973
20	16486	8.7	6.7247601263225
20	17000	8.8	1.4472800508197
20	17514	8.9	6.5570103871119
20	18028	9	1.1056391883074
20	18542	9.1	4.2691796502384
20	19173	9.2	0.973
20	19804	9.3	3.4679827672813
20	20435	9.4	4.1169735288596
20	21066	9.5	4.44385575552
20	21697	9.6	0.973
20	22328	9.7	5.5793395497835
20	22959	9.8	0.973
20	23590	9.9	7.892322188093
20	24221	10	1.8222588088605
20	24852	10.1	3.4509053823643
20	25483	10.2	1.9268121261004
20	26114	10.3	0.973
20	26745	10.4	3.2908023866811
20	27376	10.5	8.2110644626739
20	28007	10.6	0.973
20	28638	10.7	3.108868325936
20	29269	10.8	0.973
20	29900	10.9	7.8805022793342
20	30531	11	0.973
20	31162	11.1	5.2820122030177
20	31793	11.2	2.7337543060039
20	32424	11.3	3.5095970055464
20	33055	11.4	1.9276455102375
20	33686	11.5	3.6101499532968
20	34317	11.6	4.8936965395169
20	34948	11.7	0.973
20	35579	11.8	6.3611232763014
20	36210	11.9	0.973
20	36841	12	1.3680574689282
20	37472	12.1	4.4383934939873
20	38103	12.2	7.3220252226339
20	38734	12.3	0.973
20	39365	12.4	3.927294466302
20	39996	12.5	4.3376575496299
20	40627	12.6	4.1829908121254
20	41258	12.7	0.973
20	41889	12.8	6.4833433102495
20	42520	12.9	0.973
20	43151	13	6.4765620794303
20	43782	13.1	2.8488414809246
20	44413	13.2	1.3902383209791
20	45044	13.3	0.97132436314648
20	45675	13.4	5.6417208503909
20	46306	13.5	1.0760755606477
20	46937	13.6	1.6451984718636
20	47568	13.7	2.5309723189539
20	48199	13.8	1.7030616935786
20	48830	13.9	2.0178911757157
20	49461	14	3.6754483963195
20	50092	14.1	2.4331388964062
20	50723	14.2	4.481106071954
20	51354	14.3	4.8453717778408
20	51985	14.4	0.973
20	52616	14.5	5.5874732201032
20	53247	14.6	0.973
20	53878	14.7	3.7595659380446
20	54509	14.8	5.4917091008205
20	55140	14.9	0.973
20	55771	15	1.1243784948671
20	56402	15.1	4.243368434939
20	57033	15.2	3.4593427151586
20	57664	15.3	6.2202471340193
20	58295	15.4	2.7512197042933
20	58926	15.5	2.9599056215078
20	59557	15.6	0.973
20	60188	15.7	5.0426791038034
20	60819	15.8	2.266976879804
20	61450	15.9	0.973
20	62081	16	1.7807152077476
20	62712	16.1	6.0529698293025
20	63343	16.2	2.3039667510874
20	63974	16.3	2.9508995894934
20	64605	16.4	3.3611492380168
20	65236	16.5	2.0220375203496
20	65867	16.6	0.90200615994133
20	66498	16.7	5.2071571607099
20	67129	16.8	0.65216439904151
20	67760	16.9	3.4304634165686
20	68391	17	6.5610889318851
20	69022	17.1	2.7797097225608
20	69653	17.2	0.973
20	70284	17.3	3.4189224764897
20	70915	17.4	4.6095466237188
20	71546	17.5	3.5923611576414
20	72177	17.6	0.973
20	72808	17.7	6.5467890627066
20	73439	17.8	0.973
20	74070	17.9	2.9578015907424
20	74701	18	4.1860998059529
20	75332	18.1	3.3511617165396
20	75963	18.2	0.973
20	76594	18.3	6.0606576115981
20	77225	18.4	0.973
20	77856	18.5	3.0559292577206
20	78487	18.6	6.1100284167353
20	79118	18.7	4.0776040366131
20	79749	18.8	0.973
20	80380	18.9	2.5631326763872
20	81011	19	6.0279068117686
20	81642	19.1	0.973
20	82273	19.2	2.1210625637541
20	82904	19.3	4.9634657156079
20	83535	19.4	4.7350477504912
20	84166	19.5	3.1943581490546
20	84797	19.6	0.973
20	85428	19.7	6.8416342474247
20	85942	19.8	1.5081084756646
20	86456	19.9	1.5634070453516
20	86970	20	4.3816162156942
20	87484	20.1	5.3086647170628
20	87998	20.2	0.973
20	88512	20.3	1.4040039161343
20	89026	20.4	6.5144723932892
20	89540	20.5	2.3401914689429
20	90054	20.6	0.973
20	90568	20.7	4.3406363941398
20	90977	20.8	3.2439490958887
20	91386	20.9	1.8719326631529
20	91795	21	3.9329368637761
20	92204	21.1	0.973
20	92613	21.2	4.7495990330928
20	93022	21.3	0.973
20	93431	21.4	4.0159346172621
20	93840	21.5	3.3512737391196
20	94249	21.6	2.8218953076173
19	540	2.3	0.7261111973785
19	604	2.4	0.14136273982004
19	668	2.5	-0.17432102421299
19	732	2.6	-0.018400255055155
19	796	2.7	-0.42341909604147
19	860	2.8	0.67954831121021
19	924	2.9	-0.16950175494419
19	988	3	0.47756378159391
19	1052	3.1	-0.84729992956856
19	1161	3.2	-0.22537735207006
19	1270	3.3	0.97959401947445
19	1379	3.4	-0.60531087818088
19	1488	3.5	0.43262213943525
19	1597	3.6	-0.31705146555321
19	1706	3.7	0.23029171365778
19	1815	3.8	-0.73936347982379
19	1924	3.9	0.7501598665025
19	2033	4	-0.22247448808049
19	2142	4.1	0.32921637825201
19	2308	4.2	-0.36686886460519
19	2474	4.3	-0.042261812044302
19	2640	4.4	-0.22501153624617
19	2806	4.5	0.25985590920317
19	2972	4.6	0.21252932306378
19	3138	4.7	0.030606611585249
19	3304	4.8	0.093183228839209
19	3470	4.9	0.26592532217034
19	3636	5	-0.74182876411356
19	3802	5.1	0.41514294699297
19	4037	5.2	0.19243794158101
19	4272	5.3	-1.0696495964192
19	4507	5.4	0.31839683505243
19	4742	5.5	-0.17161619456022
19	4977	5.6	-0.0037831662222487
19	5212	5.7	-0.093433696404119
19	5447	5.8	0.4694698948413
19	5682	5.9	-0.224672566005
19	5917	6	-0.16289233693389
19	6152	6.1	0.47072762460449
19	6468	6.2	-0.51743234139867
19	6784	6.3	1.0572568015195
19	7100	6.4	-1.2042573389132
19	7416	6.5	0.35004753891847
19	7732	6.6	0.75970947497989
19	8048	6.7	0.099038828769693
19	8364	6.8	-0.19274501209146
19	8680	6.9	-0.054531323630371
19	8996	7	-0.10355910665822
19	9312	7.1	-0.52139941861387
19	9721	7.2	0.018109427555473
19	10130	7.3	0.53733284813351
19	10539	7.4	-0.73619738002307
19	10948	7.5	0.87774052550085
19	11357	7.6	-0.64203130283857
19	11766	7.7	-0.22538036555051
19	12175	7.8	0.031038303859532
19	12584	7.9	0.40151461269705
19	12993	8	-0.3061777114868
19	13402	8.1	0.56143614733593
19	13916	8.2	0.41729745748452
19	14430	8.3	-0.17441659627949
19	14944	8.4	-0.84053520623129
19	15458	8.5	0.95456146199723
19	15972	8.6	-1.2016857250128
19	16486	8.7	0.80614566996225
19	17000	8.8	-0.28432885222134
19	17514	8.9	0.76801463013979
19	18028	9	-0.35568863933438
19	18542	9.1	0.29647274834566
19	19173	9.2	-0.76440944329367
19	19804	9.3	0.13369244108905
19	20435	9.4	0.26675886248707
19	21066	9.5	0.33266251985914
19	21697	9.6	-1.0063003864605
19	22328	9.7	0.56962073300962
19	22959	9.8	-0.55067070694641
19	23590	9.9	1.0436896103667
19	24221	10	-0.20789485678542
19	24852	10.1	0.1278850810602
19	25483	10.2	-0.18616788699291
19	26114	10.3	-0.96369195606094
19	26745	10.4	0.098828365793473
19	27376	10.5	1.1096247685375
19	28007	10.6	-0.74543251353319
19	28638	10.7	0.059562060772471
19	29269	10.8	-0.51432090557647
19	29900	10.9	1.0427698674379
19	30531	11	-0.933184972452
19	31162	11.1	0.50878468039446
19	31793	11.2	-0.018360104877502
19	32424	11.3	0.14159898112993
19	33055	11.4	-0.1850460943766
19	33686	11.5	0.16248223632576
19	34317	11.6	0.42558798352253
19	34948	11.7	-0.9043571548769
19	35579	11.8	0.72959810814353
19	36210	11.9	-0.71119863127823
19	36841	12	-0.29977682142054
19	37472	12.1	0.33586021095982
19	38103	12.2	0.92606210138182
19	38734	12.3	-1.1195293450961
19	39365	12.4	0.22978747296147
19	39996	12.5	0.31328261971939
19	40627	12.6	0.27997123629319
19	41258	12.7	-0.59483572046737
19	41889	12.8	0.75403715949506
19	42520	12.9	-0.70558907161466
19	43151	13	0.75230806914622
19	43782	13.1	0.0036749536404557
19	44413	13.2	-0.29677606441545
19	45044	13.3	-0.38281592410058
19	45675	13.4	0.58061949869153
19	46306	13.5	-0.36145564124453
19	46937	13.6	-0.24323510376274
19	47568	13.7	-0.059627986862303
19	48199	13.8	-0.23062895499169
19	48830	13.9	-0.16493060262874
19	49461	14	0.17835334618574
19	50092	14.1	-0.07903305331709
19	50723	14.2	0.34408983085303
19	51354	14.3	0.41727785139813
19	51985	14.4	-0.67727319521367
19	52616	14.5	0.57129519660958
19	53247	14.6	-0.62939407702068
19	53878	14.7	0.19518849949819
19	54509	14.8	0.55078829836564
19	55140	14.9	-0.51209207326174
19	55771	15	-0.35039603479671
19	56402	15.1	0.2955200475175
19	57033	15.2	0.13251450287644
19	57664	15.3	0.69954215108883
19	58295	15.4	-0.016344812884945
19	58926	15.5	0.026635762676612
19	59557	15.6	-0.50032503108959
19	60188	15.7	0.45670100208369
19	60819	15.8	-0.11592845385891
19	61450	15.9	-0.75802742955275
19	62081	16	-0.21419055289591
19	62712	16.1	0.66802351158113
19	63343	16.2	-0.10714996221939
19	63974	16.3	0.026646110997532
19	64605	16.4	0.11111027665901
19	65236	16.5	-0.16542876944879
19	65867	16.6	-0.39673601239919
19	66498	16.7	0.4932902114
19	67129	16.8	-0.44859969422685
19	67760	16.9	0.12698142949958
19	68391	17	0.77019325240979
19	69022	17.1	-0.010343610635033
19	69653	17.2	-0.58893011268225
19	70284	17.3	0.12343543774911
19	70915	17.4	0.36790087542034
19	71546	17.5	0.15717278069349
19	72177	17.6	-1.1138887646841
19	72808	17.7	0.76934732038065
19	73439	17.8	-0.63739789654502
19	74070	17.9	0.02949565642048
19	74701	18	0.2828567543067
19	75332	18.1	0.10954935885966
19	75963	18.2	-0.55467386904638
19	76594	18.3	0.66951839432587
19	77225	18.4	-0.56316686035135
19	77856	18.5	0.049864556873231
19	78487	18.6	0.67862397662829
19	79118	18.7	0.25741743962278
19	79749	18.8	-0.7440344429342
19	80380	18.9	-0.052746395813301
19	81011	19	0.66085091778078
19	81642	19.1	-0.7237554426305
19	82273	19.2	-0.14381785255392
19	82904	19.3	0.44334134699312
19	83535	19.4	0.39398703083862
19	84166	19.5	0.075451870798133
19	84797	19.6	-1.0282545192866
19	85428	19.7	0.83005345494023
19	85942	19.8	-0.27182670545297
19	86456	19.9	-0.25986037948172
19	86970	20	0.32260818064682
19	87484	20.1	0.51142652237321
19	87998	20.2	-0.52237956493627
19	88512	20.3	-0.29293004521168
19	89026	20.4	0.7606727829203
19	89540	20.5	-0.10078163535798
19	90054	20.6	-0.64105707723648
19	90568	20.7	0.31398810951504
19	90977	20.8	0.086781024537039
19	91386	20.9	-0.19648246972356
19	91795	21	0.22911207166036
19	92204	21.1	-0.48635817451871
19	92613	21.2	0.39842773783022
19	93022	21.3	-0.55257091431411
19	93431	21.4	0.24805285388137
19	93840	21.5	0.10993679359089
19	94249	21.6	0.00032875570468605
18	476	2.2	19.993425724762
18	540	2.3	20.0660368445
18	604	2.4	20.080173118482
18	668	2.5	20.062741016061
18	732	2.6	20.060900990556
18	796	2.7	20.018559080951
18	860	2.8	20.086513912072
18	924	2.9	20.069563736578
18	988	3	20.117320114737
18	1052	3.1	20.032590121781
18	1161	3.2	20.010052386574
18	1270	3.3	20.108011788521
18	1379	3.4	20.047480700703
18	1488	3.5	20.090742914646
18	1597	3.6	20.059037768091
18	1706	3.7	20.082066939457
18	1815	3.8	20.008130591474
18	1924	3.9	20.083146578125
18	2033	4	20.060899129317
18	2142	4.1	20.093820767142
18	2308	4.2	20.057133880681
18	2474	4.3	20.052907699477
18	2640	4.4	20.030406545852
18	2806	4.5	20.056392136773
18	2972	4.6	20.077645069079
18	3138	4.7	20.080705730238
18	3304	4.8	20.090024053121
18	3470	4.9	20.116616585338
18	3636	5	20.042433708927
18	3802	5.1	20.083948003626
18	4037	5.2	20.103191797785
18	4272	5.3	19.996226838143
18	4507	5.4	20.028066521648
18	4742	5.5	20.010904902192
18	4977	5.6	20.01052658557
18	5212	5.7	20.001183215929
18	5447	5.8	20.048130205413
18	5682	5.9	20.025662948813
18	5917	6	20.009373715119
18	6152	6.1	20.05644647758
18	6468	6.2	20.00470324344
18	6784	6.3	20.110428923592
18	7100	6.4	19.990003189701
18	7416	6.5	20.025007943593
18	7732	6.6	20.10097889109
18	8048	6.7	20.110882773967
18	8364	6.8	20.091608272758
18	8680	6.9	20.086155140395
18	8996	7	20.075799229729
18	9312	7.1	20.023659287868
18	9721	7.2	20.025470230624
18	10130	7.3	20.079203515437
18	10539	7.4	20.005583777435
18	10948	7.5	20.093357829985
18	11357	7.6	20.029154699701
18	11766	7.7	20.006616663146
18	12175	7.8	20.009720493532
18	12584	7.9	20.049871954801
18	12993	8	20.019254183653
18	13402	8.1	20.075397798386
18	13916	8.2	20.117127544135
18	14430	8.3	20.099685884507
18	14944	8.4	20.015632363884
18	15458	8.5	20.111088510084
18	15972	8.6	19.990919937582
18	16486	8.7	20.071534504578
18	17000	8.8	20.043101619356
18	17514	8.9	20.11990308237
18	18028	9	20.084334218437
18	18542	9.1	20.113981493271
18	19173	9.2	20.037540548942
18	19804	9.3	20.050909793051
18	20435	9.4	20.0775856793
18	21066	9.5	20.110851931286
18	21697	9.6	20.01022189264
18	22328	9.7	20.06718396594
18	22959	9.8	20.012116895246
18	23590	9.9	20.116485856283
18	24221	10	20.095696370604
18	24852	10.1	20.10848487871
18	25483	10.2	20.089868090011
18	26114	10.3	19.993498894405
18	26745	10.4	20.003381730984
18	27376	10.5	20.114344207838
18	28007	10.6	20.039800956484
18	28638	10.7	20.045757162562
18	29269	10.8	19.994325072004
18	29900	10.9	20.098602058748
18	30531	11	20.005283561503
18	31162	11.1	20.056162029542
18	31793	11.2	20.054326019054
18	32424	11.3	20.068485917167
18	33055	11.4	20.04998130773
18	33686	11.5	20.066229531362
18	34317	11.6	20.108788329714
18	34948	11.7	20.018352614227
18	35579	11.8	20.091312425041
18	36210	11.9	20.020192561913
18	36841	12	19.990214879771
18	37472	12.1	20.023800900867
18	38103	12.2	20.116407111005
18	38734	12.3	20.004454176496
18	39365	12.4	20.027432923792
18	39996	12.5	20.058761185764
18	40627	12.6	20.086758309393
18	41258	12.7	20.027274737346
18	41889	12.8	20.102678453296
18	42520	12.9	20.032119546134
18	43151	13	20.107350353049
18	43782	13.1	20.107717848413
18	44413	13.2	20.078040241972
18	45044	13.3	20.039758649562
18	45675	13.4	20.097820599431
18	46306	13.5	20.061675035306
18	46937	13.6	20.03735152493
18	47568	13.7	20.031388726244
18	48199	13.8	20.008325830745
18	48830	13.9	19.991832770482
18	49461	14	20.0096681051
18	50092	14.1	20.001764799769
18	50723	14.2	20.036173782854
18	51354	14.3	20.077901567994
18	51985	14.4	20.010174248472
18	52616	14.5	20.067303768133
18	53247	14.6	20.004364360431
18	53878	14.7	20.023883210381
18	54509	14.8	20.078962040218
18	55140	14.9	20.027752832891
18	55771	15	19.992713229412
18	56402	15.1	20.022265234163
18	57033	15.2	20.035516684451
18	57664	15.3	20.10547089956
18	58295	15.4	20.103836418272
18	58926	15.5	20.106499994539
18	59557	15.6	20.05646749143
18	60188	15.7	20.102137591639
18	60819	15.8	20.090544746253
18	61450	15.9	20.014742003297
18	62081	16	19.993322948008
18	62712	16.1	20.060125299166
18	63343	16.2	20.049410302944
18	63974	16.3	20.052074914044
18	64605	16.4	20.06318594171
18	65236	16.5	20.046643064765
18	65867	16.6	20.006969463525
18	66498	16.7	20.056298484665
18	67129	16.8	20.011438515242
18	67760	16.9	20.024136658192
18	68391	17	20.101155983433
18	69022	17.1	20.10012162237
18	69653	17.2	20.041228611101
18	70284	17.3	20.053572154876
18	70915	17.4	20.090362242418
18	71546	17.5	20.106079520488
18	72177	17.6	19.994690644019
18	72808	17.7	20.071625376057
18	73439	17.8	20.007885586403
18	74070	17.9	20.010835152045
18	74701	18	20.039120827476
18	75332	18.1	20.050075763362
18	75963	18.2	19.994608376457
18	76594	18.3	20.061560215889
18	77225	18.4	20.005243529854
18	77856	18.5	20.010229985542
18	78487	18.6	20.078092383204
18	79118	18.7	20.103834127167
18	79749	18.8	20.029430682873
18	80380	18.9	20.024156043292
18	81011	19	20.09024113507
18	81642	19.1	20.017865590807
18	82273	19.2	20.003483805552
18	82904	19.3	20.047817940251
18	83535	19.4	20.087216643335
18	84166	19.5	20.094761830415
18	84797	19.6	19.991936378486
18	85428	19.7	20.07494172398
18	85942	19.8	20.047759053435
18	86456	19.9	20.021773015487
18	86970	20	20.054033833551
18	87484	20.1	20.105176485789
18	87998	20.2	20.052938529295
18	88512	20.3	20.023645524774
18	89026	20.4	20.099712803066
18	89540	20.5	20.08963463953
18	90054	20.6	20.025528931806
18	90568	20.7	20.056927742758
18	90977	20.8	20.065605845212
18	91386	20.9	20.045957598239
18	91795	21	20.068868805405
18	92204	21.1	20.020232987953
18	92613	21.2	20.060075761736
18	93022	21.3	20.004818670305
18	93431	21.4	20.029623955693
18	93840	21.5	20.040617635052
18	94249	21.6	20.040650510623
17	412	2.1	416.34012864494
17	476	2.2	416.34012864494
17	540	2.3	414.34083650488
17	604	2.4	412.334283436
17	668	2.5	410.32631677538
17	732	2.6	408.32009328103
17	796	2.7	406.31405378459
17	860	2.8	404.3122483723
17	924	2.9	402.30364764832
17	988	3	400.29674189913
17	1052	3.1	398.28506063259
17	1161	3.2	396.28185215161
17	1270	3.3	394.28089738731
17	1379	3.4	392.2701469299
17	1488	3.5	390.2654494286
17	1597	3.6	388.25642581502
17	1706	3.7	386.25057263613
17	1815	3.8	384.24241659819
17	1924	3.9	382.24165400855
17	2033	4	380.23339000946
17	2142	4.1	378.22735069914
17	2308	4.2	376.21801930808
17	2474	4.3	374.21235651313
17	2640	4.4	372.20711632563
17	2806	4.5	370.20412619674
17	2972	4.6	368.19853757431
17	3138	4.7	366.19082371225
17	3304	4.8	364.1828037918
17	3470	4.9	362.17385206257
17	3636	5	360.16224114719
17	3802	5.1	358.15804833233
17	4037	5.2	356.14970419272
17	4272	5.3	354.13943572223
17	4507	5.4	352.1398634779
17	4742	5.5	350.13710734552
17	4977	5.6	348.13606733181
17	5212	5.7	346.1350651488
17	5447	5.8	344.13499727919
17	5682	5.9	342.13023482905
17	5917	6	340.1277190479
17	6152	6.1	338.12683214902
17	6468	6.2	336.12123809265
17	6784	6.3	334.12081822916
17	7100	6.4	332.10982606435
17	7416	6.5	330.11087616916
17	7732	6.6	328.10842588688
17	8048	6.7	326.09837870148
17	8364	6.8	324.08734115277
17	8680	6.9	322.07823100557
17	8996	7	320.06966615785
17	9312	7.1	318.06213687507
17	9721	7.2	316.05982145496
17	10130	7.3	314.05732494514
17	10539	7.4	312.04945524238
17	10948	7.5	310.04894732772
17	11357	7.6	308.03966222921
17	11766	7.7	306.03679728177
17	12175	7.8	304.03618608115
17	12584	7.9	302.03526450531
17	12993	8	300.03032788462
17	13402	8.1	298.02845296382
17	13916	8.2	296.02096382317
17	14430	8.3	294.0093018132
17	14944	8.4	291.9993839252
17	15458	8.5	289.99787117724
17	15972	8.6	287.98681305544
17	16486	8.7	285.98777148777
17	17000	8.8	283.98066866675
17	17514	8.9	281.97640906254
17	18028	9	279.96446950574
17	18542	9.1	277.95608674563
17	19173	9.2	275.94473933281
17	19804	9.3	273.9410358216
17	20435	9.4	271.93599541971
17	21066	9.5	269.92828749648
17	21697	9.6	267.91725303197
17	22328	9.7	265.91628131749
17	22959	9.8	263.90961353936
17	23590	9.9	261.90845232939
17	24221	10	259.89685448659
17	24852	10.1	257.88733553991
17	25483	10.2	255.87653777469
17	26114	10.3	253.86760164137
17	26745	10.4	251.86830218453
17	27376	10.5	249.86801446895
17	28007	10.6	247.85663078559
17	28638	10.7	245.85270123934
17	29269	10.8	243.8481760875
17	29900	10.9	241.84879401498
17	30531	11	239.83898450682
17	31162	11.1	237.83850661299
17	31793	11.2	235.8329410007
17	32424	11.3	233.82755898482
17	33055	11.4	231.82076101486
17	33686	11.5	229.81581345915
17	34317	11.6	227.80924112208
17	34948	11.7	225.79841301251
17	35579	11.8	223.79662824638
17	36210	11.9	221.7875476832
17	36841	12	219.78557892694
17	37472	12.1	217.78660786328
17	38103	12.2	215.78427828222
17	38734	12.3	213.77268831375
17	39365	12.4	211.77229335633
17	39996	12.5	209.76960058215
17	40627	12.6	207.76377506079
17	41258	12.7	205.75514989769
17	41889	12.8	203.75247294175
17	42520	12.9	201.74225580442
17	43151	13	199.73909437982
[...]
68	92204	21.1	0.11287944121285
68	92613	21.2	0.46027616520881
68	93022	21.3	-0.20470470241271
68	93431	21.4	-0.14306245720945
68	93840	21.5	0.10648755345027
68	94249	21.6	0.21445583452003
68	94658	21.7	0.046795704774567
68	94974	21.8	0.54537280127406
68	95290	21.9	-0.65765135188119
68	95606	22	-0.2645560215926
68	95922	22.1	0.082922359369704
68	96238	22.2	0.9485786442179
68	96554	22.3	-0.41311003933661
68	96870	22.4	-0.21811519379259
68	97186	22.5	0.37310670558362
68	97502	22.6	0.013102903589619
68	97818	22.7	-0.45783391273581
68	98134	22.8	-0.57331241758074
68	98450	22.9	0.50318835752549
68	98766	23	-0.35875245181376
68	99001	23.1	0.24043519995175
68	99236	23.2	0.56904325741343
68	99471	23.3	-0.42442119664045
68	99706	23.4	0.7058646092424
68	99941	23.5	-0.015406412165611
68	100176	23.6	-1.0610129175475
68	100411	23.7	1.1008894762723
68	100577	23.8	-0.73156331782229
68	100743	23.9	0.45127040217633
68	100909	24	-0.55860505902675
68	101075	24.1	0.13129124713597
68	101241	24.2	-0.49722876679155
68	101407	24.3	1.0628776136087
68	101573	24.4	0.10237154625354
68	101739	24.5	-1.0781412843847
68	101905	24.6	0.2828277097549
68	102071	24.7	0.52510532611052
68	102237	24.8	-0.47074823256118
68	102403	24.9	-0.4655178623274
68	102569	25	0.30316149510909
68	102678	25.1	0.63183002527804
68	102787	25.2	-0.74904974431266
68	102896	25.3	0.032564741885288
68	103005	25.4	0.56540258983151
68	103114	25.5	-0.40108719638084
68	103223	25.6	-0.073666135733959
68	103332	25.7	0.27258475832642
68	103396	25.8	0.35207852213645
68	103460	25.9	-0.074833670537942
68	103524	26	0.15502888124903
68	103588	26.1	-0.24586576141882
68	103652	26.2	-0.44494106895293
68	103716	26.3	0.77206660904924
68	103780	26.4	-0.17699918898291
68	103844	26.5	-0.40018276087938
68	103908	26.6	0.25063475102652
68	103972	26.7	-0.12533286106773
68	104036	26.8	0.009614107734528
68	104100	26.9	-0.59717879232483
68	104164	27	0.59551443671808
68	104195	27.1	0.15684137805366
68	104226	27.2	0.23853011792525
68	104257	27.3	-0.19830413016027
68	104288	27.4	0.23015052077827
68	104319	27.5	-0.082231500814665
68	104350	27.6	-0.42056074747816
68	104381	27.7	0.48130547613837
68	104412	27.8	-1.0442813948496
68	104443	27.9	0.11457047471779
68	104474	28	0.67258531260304
68	104505	28.1	0.22870041891
68	104536	28.2	-0.15294074662961
68	104567	28.3	-0.56910483036191
68	104598	28.4	0.66546207347418
68	104608	28.5	-0.61871041799893
68	104618	28.6	-0.34188273155596
67	19173	9.2	20.016868051835
67	19804	9.3	20.119937753982
67	20435	9.4	20.111436915097
67	21066	9.5	20.015870489588
67	21697	9.6	20.050632658454
67	22328	9.7	20.010244167848
67	22959	9.8	20.027000720957
67	23590	9.9	20.046370408195
67	24221	10	20.117007013361
67	24852	10.1	20.017424246678
67	25483	10.2	20.093266858258
67	26114	10.3	19.993257332861
67	26745	10.4	20.042978385016
67	27376	10.5	20.017145202656
67	28007	10.6	19.992235379824
67	28638	10.7	20.065972102615
67	29269	10.8	20.066383961369
67	29900	10.9	20.066883320264
67	30531	11	19.995716989697
67	31162	11.1	20.031370323552
67	31793	11.2	20.109200621694
67	32424	11.3	20.110285761931
67	33055	11.4	20.050725751421
67	33686	11.5	20.11536444017
67	34317	11.6	20.077329274125
67	34948	11.7	19.995792231455
67	35579	11.8	20.109237036682
67	36210	11.9	20.090463423051
67	36841	12	20.115172195977
67	37472	12.1	20.051947010504
67	38103	12.2	20.082563294193
67	38734	12.3	20.039647992628
67	39365	12.4	20.104192350297
67	39996	12.5	20.02075540869
67	40627	12.6	20.10845846829
67	41258	12.7	20.048351673344
67	41889	12.8	20.051238310607
67	42520	12.9	20.047953468417
67	43151	13	20.061936901461
67	43782	13.1	20.099863007965
67	44413	13.2	20.077555835037
67	45044	13.3	20.101256239258
67	45675	13.4	20.027131417324
67	46306	13.5	20.010442690225
67	46937	13.6	20.081442595401
67	47568	13.7	20.037906305592
67	48199	13.8	20.112153088644
67	48830	13.9	20.081313113265
67	49461	14	20.020705073972
67	50092	14.1	20.087747388191
67	50723	14.2	20.005296905688
67	51354	14.3	20.068403043489
67	51985	14.4	20.083286447991
67	52616	14.5	20.036253807195
67	53247	14.6	20.049567408913
67	53878	14.7	20.010936322114
67	54509	14.8	20.062990728349
67	55140	14.9	20.096307845227
67	55771	15	19.997870474982
67	56402	15.1	20.056369923281
67	57033	15.2	19.993121882423
67	57664	15.3	20.006636023154
67	58295	15.4	20.073879344964
67	58926	15.5	20.031121786509
67	59557	15.6	20.119009726041
67	60188	15.7	20.078551825711
67	60819	15.8	20.117191647184
67	61450	15.9	20.098994577834
67	62081	16	20.082212345428
67	62712	16.1	20.038580994839
67	63343	16.2	20.001323281145
67	63974	16.3	19.9970900949
67	64605	16.4	20.018295028964
67	65236	16.5	19.998208921223
67	65867	16.6	20.036020541773
67	66498	16.7	20.087663274403
67	67129	16.8	20.078686202029
67	67760	16.9	20.111122517283
67	68391	17	20.053815149125
67	69022	17.1	20.003891491925
67	69653	17.2	20.039152709681
67	70284	17.3	20.062871217001
67	70915	17.4	20.09071055348
67	71546	17.5	20.111640236706
67	72177	17.6	20.042115423554
67	72808	17.7	20.049025464631
67	73439	17.8	20.035612993271
67	74070	17.9	20.078664825598
67	74701	18	20.074304562372
67	75332	18.1	20.117645103047
67	75963	18.2	20.093695929567
67	76594	18.3	20.070727908397
67	77225	18.4	20.013442506925
67	77856	18.5	19.999117778242
67	78487	18.6	20.072838877062
67	79118	18.7	20.065000715333
67	79749	18.8	20.056261576279
67	80380	18.9	20.035801745022
67	81011	19	20.10386966293
67	81642	19.1	20.084640157016
67	82273	19.2	20.098809130015
67	82904	19.3	19.998086932381
67	83535	19.4	20.056899635575
67	84166	19.5	20.100687293331
67	84797	19.6	20.07468357773
67	85428	19.7	20.115750125139
67	85942	19.8	20.001998363119
67	86456	19.9	20.105921158518
67	86970	20	20.009927811604
67	87484	20.1	20.034663280891
67	87998	20.2	20.023020018064
67	88512	20.3	20.034537214346
67	89026	20.4	20.015298024281
67	89540	20.5	20.077936382531
67	90054	20.6	20.043677394195
67	90568	20.7	19.994113638757
67	90977	20.8	20.026651093117
67	91386	20.9	20.111277513453
67	91795	21	19.993949871471
67	92204	21.1	20.005237815592
67	92613	21.2	20.051265432113
67	93022	21.3	20.030794961872
67	93431	21.4	20.016488716151
67	93840	21.5	20.027137471496
67	94249	21.6	20.048583054948
67	94658	21.7	20.053262625425
67	94974	21.8	20.107799905553
67	95290	21.9	20.042034770364
67	95606	22	20.015579168205
67	95922	22.1	20.023871404142
67	96238	22.2	20.118729268564
67	96554	22.3	20.07741826463
67	96870	22.4	20.055606745251
67	97186	22.5	20.092917415809
67	97502	22.6	20.094227706168
67	97818	22.7	20.048444314895
67	98134	22.8	19.991113073137
67	98450	22.9	20.041431908889
67	98766	23	20.005556663708
67	99001	23.1	20.029600183703
67	99236	23.2	20.086504509444
67	99471	23.3	20.04406238978
67	99706	23.4	20.114648850705
67	99941	23.5	20.113108209488
67	100176	23.6	20.007006917733
67	100411	23.7	20.11709586536
67	100577	23.8	20.043939533578
67	100743	23.9	20.089066573796
67	100909	24	20.033206067893
67	101075	24.1	20.046335192607
67	101241	24.2	19.996612315928
67	101407	24.3	20.102900077289
67	101573	24.4	20.113137231914
67	101739	24.5	20.005323103475
67	101905	24.6	20.033605874451
67	102071	24.7	20.086116407062
67	102237	24.8	20.039041583806
67	102403	24.9	19.992489797573
67	102569	25	20.022805947084
67	102678	25.1	20.085988949612
67	102787	25.2	20.011083975181
67	102896	25.3	20.014340449369
67	103005	25.4	20.070880708352
67	103114	25.5	20.030771988714
67	103223	25.6	20.023405375141
67	103332	25.7	20.050663850973
67	103396	25.8	20.085871703187
67	103460	25.9	20.078388336133
67	103524	26	20.093891224258
67	103588	26.1	20.069304648116
67	103652	26.2	20.024810541221
67	103716	26.3	20.102017202126
67	103780	26.4	20.084317283228
67	103844	26.5	20.04429900714
67	103908	26.6	20.069362482242
67	103972	26.7	20.056829196136
67	104036	26.8	20.057790606909
67	104100	26.9	19.998072727676
67	104164	27	20.057624171348
67	104195	27.1	20.073308309154
67	104226	27.2	20.097161320946
67	104257	27.3	20.07733090793
67	104288	27.4	20.100345960008
67	104319	27.5	20.092122809927
67	104350	27.6	20.050066735179
67	104381	27.7	20.098197282793
67	104412	27.8	19.993769143308
67	104443	27.9	20.005226190779
67	104474	28	20.07248472204
67	104505	28.1	20.095354763931
67	104536	28.2	20.080060689268
67	104567	28.3	20.023150206232
67	104598	28.4	20.089696413579
67	104608	28.5	20.027825371779
67	104618	28.6	19.993637098623
66	18542	9.1	416.30025728988
66	19173	9.2	416.30025728988
66	19804	9.3	414.29867146779
66	20435	9.4	412.28677919545
66	21066	9.5	410.27573696412
66	21697	9.6	408.27425089322
66	22328	9.7	406.26928878081
66	22959	9.8	404.26836531369
66	23590	9.9	402.26576627581
66	24221	10	400.26123036691
66	24852	10.1	398.24963115386
66	25483	10.2	396.24798971509
66	26114	10.3	394.23876439777
66	26745	10.4	392.23953952846
66	27376	10.5	390.23534280478
66	28007	10.6	388.233729269
66	28638	10.7	386.23460658984
66	29269	10.8	384.22811061039
66	29900	10.9	382.22157344715
66	30531	11	380.21498635053
66	31162	11.1	378.21551552795
66	31793	11.2	376.21247955184
66	32424	11.3	374.20166093857
66	33055	11.4	372.19073381675
66	33686	11.5	370.18576239551
66	34317	11.6	368.17432743148
66	34948	11.7	366.16669579218
66	35579	11.8	364.1672174458
66	36210	11.9	362.15639519122
66	36841	12	360.14745020328
66	37472	12.1	358.13603446271
66	38103	12.2	356.13094092172
66	38734	12.3	354.12278590681
66	39365	12.4	352.11892220556
66	39996	12.5	350.10860439417
66	40627	12.6	348.106629856
66	41258	12.7	346.09588545432
66	41889	12.8	344.09115142891
66	42520	12.9	342.08612875433
66	43151	13	340.0814345474
66	43782	13.1	338.07534206772
66	44413	13.2	336.06545716871
66	45044	13.3	334.05780287446
66	45675	13.4	332.04777865935
66	46306	13.5	330.04516655249
66	46937	13.6	328.04422323414
66	47568	13.7	326.03618028346
66	48199	13.8	324.03249074213
66	48830	13.9	322.02137689706
66	49461	14	320.01334689394
66	50092	14.1	318.01137738899
66	50723	14.2	316.00270399084
66	51354	14.3	314.00227522499
66	51985	14.4	311.99553616372
66	52616	14.5	309.98730883708
66	53247	14.6	307.98378453725
66	53878	14.7	305.97892894441
66	54509	14.8	303.97793626537
66	55140	14.9	301.97173840831
66	55771	15	299.96220900764
66	56402	15.1	297.96252284739
66	57033	15.2	295.95698703743
66	57664	15.3	293.95777571248
66	58295	15.4	291.95721304164
66	58926	15.5	289.94992637785
66	59557	15.6	287.9469152542
66	60188	15.7	285.93511577998
66	60819	15.8	283.92736189168
66	61450	15.9	281.91574421618
66	62081	16	279.9059461558
66	62712	16.1	277.89782623401
66	63343	16.2	275.89406922715
66	63974	16.3	273.8940378037
66	64605	16.4	271.89442967753
66	65236	16.5	269.89270116492
66	65867	16.6	267.89298116175
66	66498	16.7	265.88948018729
66	67129	16.8	263.88081520009
66	67760	16.9	261.87304787485
66	68391	17	259.86203708171
66	69022	17.1	257.85675673628
66	69653	17.2	255.85646850471
66	70284	17.3	253.85265432926
66	70915	17.4	251.84646842273
66	71546	17.5	249.837498723
66	72177	17.6	247.82643616054
66	72808	17.7	245.82232572864
66	73439	17.8	243.8175243275
66	74070	17.9	241.81406410583
66	74701	18	239.80629891812
66	75332	18.1	237.79896973473
66	75963	18.2	235.78730671593
66	76594	18.3	233.77803849365
66	77225	18.4	231.77106695761
66	77856	18.5	229.76982367273
66	78487	18.6	227.77001278845
66	79118	18.7	225.7628301662
66	79749	18.8	223.75643132058
66	80380	18.9	221.75090634478
66	81011	19	219.74742724888
66	81642	19.1	217.73714170459
66	82273	19.2	215.72877901389
66	82904	19.3	213.71899949736
66	83535	19.4	211.71929169246
66	84166	19.5	209.71370291395
66	84797	19.6	207.70373559057
66	85428	19.7	205.69636850756
66	85942	19.8	203.68489497698
66	86456	19.9	201.68479604874
66	86970	20	199.67430536525
66	87484	20.1	197.67341353216
66	87998	20.2	195.67004827694
66	88512	20.3	193.66784728926
66	89026	20.4	191.66449464005
66	89540	20.5	189.66306581279
66	90054	20.6	187.65537346571
66	90568	20.7	185.65110684463
66	90977	20.8	183.65179634905
66	91386	20.9	181.64923227219
66	91795	21	179.63820598022
66	92204	21.1	177.63891186054
66	92613	21.2	175.6384890034
66	93022	21.3	173.63346361681
66	93431	21.4	171.63048517397
66	93840	21.5	169.62893728353
66	94249	21.6	167.62632457128
66	94658	21.7	165.62156740887
66	94974	21.8	163.61634231303
66	95290	21.9	161.6056637643
66	95606	22	159.60156139732
66	95922	22.1	157.60010445709
66	96238	22.2	155.59781833509
66	96554	22.3	153.58604690521
66	96870	22.4	151.5784063673
66	97186	22.5	149.5729468713
66	97502	22.6	147.56375649647
66	97818	22.7	145.55443509922
66	98134	22.8	143.54969181012
66	98450	22.9	141.55068135596
66	98766	23	139.54663927208
66	99001	23.1	137.54618453174
66	99236	23.2	135.54332556069
66	99471	23.3	133.53477644414
66	99706	23.4	131.53047132545
66	99941	23.5	129.51910791676
66	100176	23.6	127.50789856443
66	100411	23.7	125.50729880599
66	100577	23.8	123.49569070819
66	100743	23.9	121.49139787449
66	100909	24	119.48259256444
66	101075	24.1	117.47937302316
66	101241	24.2	115.47484063565
66	101407	24.3	113.47528028496
66	101573	24.4	111.46509169434
66	101739	24.5	109.45387943991
66	101905	24.6	107.45344805441
66	102071	24.7	105.45018853449
66	102237	24.8	103.44167822623
66	102403	24.9	101.4378751628
66	102569	25	99.438727043145
66	102678	25.1	97.436547461482
66	102787	25.2	95.428049898319
66	102896	25.3	93.42704245471
66	103005	25.4	91.425709380112
66	103114	25.5	89.418722564855
66	103223	25.6	87.415746419217
66	103332	25.7	85.413506897773
66	103396	25.8	83.408541666262
66	103460	25.9	81.400055827149
66	103524	26	79.392318286989
66	103588	26.1	77.383030536227
66	103652	26.2	75.376201319043
66	103716	26.3	73.37382128808
66	103780	26.4	71.363720980526
66	103844	26.5	69.355390575567
66	103908	26.6	67.35106179633
66	103972	26.7	65.344226796024
66	104036	26.8	63.3386450611
66	104100	26.9	61.332967189949
66	104164	27	59.333260805451
66	104195	27.1	57.327599577016
66	104226	27.2	55.320370013926
66	104257	27.3	53.310755269993
66	104288	27.4	51.303123467319
66	104319	27.5	49.293190275545
66	104350	27.6	47.284079357295
66	104381	27.7	45.279173834351
66	104412	27.8	43.269455499459
66	104443	27.9	41.270179451687
66	104474	28	39.269757756966
66	104505	28.1	37.262610548433
66	104536	28.2	35.253176451087
66	104567	28.3	33.245271684051
66	104598	28.4	31.24305767821
66	104608	28.5	29.234189387354
66	104618	28.6	27.231507888544
65	18542	9.1	23.397598627787
65	19173	9.2	23.397598627787
65	19804	9.3	23.416280499393
65	20435	9.4	23.435058566613
65	21066	9.5	23.453828699946
65	21697	9.6	23.47250964052
65	22328	9.7	23.49122302485
65	22959	9.8	23.509898714342
65	23590	9.9	23.528590042832
65	24221	10	23.547299449176
65	24852	10.1	23.566074781118
65	25483	10.2	23.584757171823
65	26114	10.3	23.603510346926
65	26745	10.4	23.622170182495
65	27376	10.5	23.640876423042
65	28007	10.6	23.659558553314
65	28638	10.7	23.678217435088
65	29269	10.8	23.696945135819
65	29900	10.9	23.715673220941
65	30531	11	23.734401772118
65	31162	11.1	23.753063903301
65	31793	11.2	23.77175930997
65	32424	11.3	23.790527356156
65	33055	11.4	23.80929641511
65	33686	11.5	23.828009886324
65	34317	11.6	23.846783685242
65	34948	11.7	23.865521985694
65	35579	11.8	23.884184187101
65	36210	11.9	23.902952267273
65	36841	12	23.921702825912
65	37472	12.1	23.940476445406
65	38103	12.2	23.959191056429
65	38734	12.3	23.977934241826
65	39365	12.4	23.996637374097
65	39996	12.5	24.015400746031
65	40627	12.6	24.034086245731
65	41258	12.7	24.052853599261
65	41889	12.8	24.071564854732
65	42520	12.9	24.090278804321
65	43151	13	24.108989688145
65	43782	13.1	24.127713622798
65	44413	13.2	24.146472954129
65	45044	13.3	24.165211466032
65	45675	13.4	24.183972097675
65	46306	13.5	24.202663548145
65	46937	13.6	24.221339422919
65	47568	13.7	24.240081562361
65	48199	13.8	24.258783069104
65	48830	13.9	24.277553870846
65	49461	14	24.296295889442
65	50092	14.1	24.314981342164
65	50723	14.2	24.33372936591
65	51354	14.3	24.35240043809
65	51985	14.4	24.371130407634
65	52616	14.5	24.389874267955
65	53247	14.6	24.408574232411
65	53878	14.7	24.427286622536
65	54509	14.8	24.44596295802
65	55140	14.9	24.464687876215
65	55771	15	24.48344388949
65	56402	15.1	24.502108030535
65	57033	15.2	24.520826769491
65	57664	15.3	24.539486478643
65	58295	15.4	24.55815880063
65	58926	15.5	24.576893881242
65	59557	15.6	24.595589055949
65	60188	15.7	24.614366257036
65	60819	15.8	24.633105698504
65	61450	15.9	24.651881202765
65	62081	16	24.670639723585
65	62712	16.1	24.689382581439
65	63343	16.2	24.708084717874
65	63974	16.3	24.726752081445
65	64605	16.4	24.745415494156
65	65236	16.5	24.764098697568
65	65867	16.6	24.782763154486
65	66498	16.7	24.801462901234
65	67129	16.8	24.820210846475
65	67760	16.9	24.838950413357
65	68391	17	24.857720253261
65	69022	17.1	24.876436607829
65	69653	17.2	24.895106368328
65	70284	17.3	24.913809038348
65	70915	17.4	24.932533845003
65	71546	17.5	24.951284634289
65	72177	17.6	24.970054957384
65	72808	17.7	24.988760392523
65	73439	17.8	25.007472276848
65	74070	17.9	25.026171643228
65	74701	18	25.044911190159
65	75332	18.1	25.063646667629
65	75963	18.2	25.082422595104
65	76594	18.3	25.101176170661
65	77225	18.4	25.119908310017
65	77856	18.5	25.138586984539
65	78487	18.6	25.1572522897
65	79118	18.7	25.175986399236
65	79749	18.8	25.194713193365
65	80380	18.9	25.2134318312
65	81011	19	25.232131373743
65	81642	19.1	25.250894444511
65	82273	19.2	25.269639568257
65	82904	19.3	25.288397915998
65	83535	19.4	25.307062259063
65	84166	19.5	25.325781492403
65	84797	19.6	25.344541593045
65	85428	19.7	25.363277424252
65	85942	19.8	25.382051583132
65	86456	19.9	25.400719576761
65	86970	20	25.419484562203
65	87484	20.1	25.438159956438
65	87998	20.2	25.456858436444
65	88512	20.3	25.475546049719
65	89026	20.4	25.494244412068
65	89540	20.5	25.512924818356
65	90054	20.6	25.531663685427
65	90568	20.7	25.550370578363
65	90977	20.8	25.569031213129
65	91386	20.9	25.587722215309
65	91795	21	25.606492199872
65	92204	21.1	25.625152681792
65	92613	21.2	25.643823698823
65	93022	21.3	25.662537673724
65	93431	21.4	25.681232543404
65	93840	21.5	25.699914060973
65	94249	21.6	25.718605517094
65	94658	21.7	25.737316988515
65	94974	21.8	25.75603282741
65	95290	21.9	25.774799566299
65	95606	22	25.793504926164
65	95922	22.1	25.812185594846
65	96238	22.2	25.830874002725
65	96554	22.3	25.849650942058
65	96870	22.4	25.868389325566
65	97186	22.5	25.887107352243
65	97502	22.6	25.905860201208
65	97818	22.7	25.924614273076
65	98134	22.8	25.943325615011
65	98450	22.9	25.961983449329
65	98766	23	25.98068824654
65	99001	23.1	25.999359561154
65	99236	23.2	26.018053315739
65	99471	23.3	26.036800179498
65	99706	23.4	26.055507431754
65	99941	23.5	26.074280562807
65	100176	23.6	26.09305225597
65	100411	23.7	26.111724924115
65	100577	23.8	26.130500338983
65	100743	23.9	26.149207476576
65	100909	24	26.167956731526
65	101075	24.1	26.186653851507
65	101241	24.2	26.205363224984
65	101407	24.3	26.224026191781
65	101573	24.4	26.242788357628
65	101739	24.5	26.261560077878
65	101905	24.6	26.280231174509
65	102071	24.7	26.298928667631
65	102237	24.8	26.317675169171
65	102403	24.9	26.336377735477
65	102569	25	26.3550368547
65	102678	25.1	26.373724268182
65	102787	25.2	26.392470650765
65	102896	25.3	26.411147124054
65	103005	25.4	26.429826636632
65	103114	25.5	26.448558918597
65	103223	25.6	26.467253766835
65	103332	25.7	26.485941739767
65	103396	25.8	26.504655153208
65	103460	25.9	26.523401426365
65	103524	26	26.542140715247
65	103588	26.1	26.560894473074
65	103652	26.2	26.579625284091
65	103716	26.3	26.598314568473
65	103780	26.4	26.617075910328
65	103844	26.5	26.635820732734
65	103908	26.6	26.654528205826
65	103972	26.7	26.673259070821
65	104036	26.8	26.691978238419
65	104100	26.9	26.710698303308
65	104164	27	26.729362633116
65	104195	27.1	26.748082542669
65	104226	27.2	26.76681709033
65	104257	27.3	26.785573900159
65	104288	27.4	26.804312202136
65	104319	27.5	26.82307198421
65	104350	27.6	26.841824091565
65	104381	27.7	26.860536947714
65	104412	27.8	26.879294724414
65	104443	27.9	26.897955037659
65	104474	28	26.91662604384
65	104505	28.1	26.935359822841
65	104536	28.2	26.9541149466
65	104567	28.3	26.972855796299
65	104598	28.4	26.99154353108
65	104608	28.5	27.010293373863
65	104618	28.6	27.028985472005
