version 2
run General-8-20161208-15:07:08-758
attr configname General
attr datetime 20161208-15:07:08
attr experiment General
attr inifile omnetpp.ini
attr iterationvars ""
attr iterationvars2 $repetition=8
attr measurement ""
attr network com.liborio.locvanet.LocScenario
attr processid 758
attr repetition 8
attr replication #8
attr resultdir results
attr runnumber 8
attr seedset 8
param **.coreDebug false
param **.debug false
param *.**.nic.mac1609_4.bitrate 18Mbps
param *.**.nic.mac1609_4.txPower 20mW
param *.**.nic.mac1609_4.useServiceChannel false
param *.**.nic.phy80211p.analogueModels "xmldoc(\"config_trgi.xml\")"
param *.**.nic.phy80211p.decider "xmldoc(\"config_trgi.xml\")"
param *.**.nic.phy80211p.sensitivity -89dBm
param *.**.nic.phy80211p.thermalNoise -110dBm
param *.**.nic.phy80211p.usePropagationDelay true
param *.**.nic.phy80211p.useThermalNoise true
param *.annotations.draw false
param *.connectionManager.alpha 2.0
param *.connectionManager.carrierFrequency "5.890e9 Hz"
param *.connectionManager.pMax 20mW
param *.connectionManager.sat -89dBm
param *.connectionManager.sendDirect true
param *.manager.autoShutdown true
param *.manager.host "\"localhost\""
param *.manager.launchConfig "xmldoc(\"tunnel.launchd.xml\")"
param *.manager.margin 25
param *.manager.moduleDisplayString "\"\""
param *.manager.moduleName "\"node\""
param *.manager.moduleType "\"org.car2x.veins.nodes.Car\""
param *.manager.port 9999
param *.manager.updateInterval 0.1s
param *.node[*].appl.beaconInterval 0.1s
param *.node[*].appl.beaconPriority 3
param *.node[*].appl.dataOnSch false
param *.node[*].appl.dataPriority 2
param *.node[*].appl.debug false
param *.node[*].appl.headerLength "256 bit"
param *.node[*].appl.maxOffset 0.005s
param *.node[*].appl.sendBeacons true
param *.node[*].appl.sendData true
param *.node[*].applType "\"LocAppCom\""
param *.node[*].mobilityType "\"TraCIMobility\""
param *.node[*].mobilityType.debug true
param *.node[*].veinsmobility.x 0
param *.node[*].veinsmobility.y 0
param *.node[*].veinsmobility.z 1.895
param *.node[*].veinsmobilityType "\"org.car2x.veins.modules.mobility.traci.TraCIMobility\""
param *.node[*].veinsmobilityType.debug true
param *.playgroundSizeX 5000m
param *.playgroundSizeY 5000m
param *.playgroundSizeZ 50m
param *.world.use2D false
param *.world.useTorus false

vector 2  LocScenario.node[0].veinsmobility  posx  ETV
vector 3  LocScenario.node[0].veinsmobility  posy  ETV
vector 4  LocScenario.node[0].veinsmobility  speed  ETV
vector 5  LocScenario.node[0].veinsmobility  acceleration  ETV
vector 6  LocScenario.node[0].veinsmobility  co2emission  ETV
vector 9  LocScenario.node[1].veinsmobility  posx  ETV
vector 10  LocScenario.node[1].veinsmobility  posy  ETV
vector 11  LocScenario.node[1].veinsmobility  speed  ETV
vector 12  LocScenario.node[1].veinsmobility  acceleration  ETV
vector 13  LocScenario.node[1].veinsmobility  co2emission  ETV
vector 16  LocScenario.node[2].veinsmobility  posx  ETV
vector 17  LocScenario.node[2].veinsmobility  posy  ETV
vector 18  LocScenario.node[2].veinsmobility  speed  ETV
vector 19  LocScenario.node[2].veinsmobility  acceleration  ETV
vector 20  LocScenario.node[2].veinsmobility  co2emission  ETV
vector 23  LocScenario.node[3].veinsmobility  posx  ETV
vector 24  LocScenario.node[3].veinsmobility  posy  ETV
vector 25  LocScenario.node[3].veinsmobility  speed  ETV
vector 26  LocScenario.node[3].veinsmobility  acceleration  ETV
vector 27  LocScenario.node[3].veinsmobility  co2emission  ETV
vector 30  LocScenario.node[4].veinsmobility  posx  ETV
vector 31  LocScenario.node[4].veinsmobility  posy  ETV
vector 32  LocScenario.node[4].veinsmobility  speed  ETV
vector 33  LocScenario.node[4].veinsmobility  acceleration  ETV
vector 34  LocScenario.node[4].veinsmobility  co2emission  ETV
vector 37  LocScenario.node[5].veinsmobility  posx  ETV
vector 38  LocScenario.node[5].veinsmobility  posy  ETV
vector 39  LocScenario.node[5].veinsmobility  speed  ETV
vector 40  LocScenario.node[5].veinsmobility  acceleration  ETV
vector 41  LocScenario.node[5].veinsmobility  co2emission  ETV
vector 44  LocScenario.node[6].veinsmobility  posx  ETV
vector 45  LocScenario.node[6].veinsmobility  posy  ETV
vector 46  LocScenario.node[6].veinsmobility  speed  ETV
vector 47  LocScenario.node[6].veinsmobility  acceleration  ETV
vector 48  LocScenario.node[6].veinsmobility  co2emission  ETV
vector 51  LocScenario.node[7].veinsmobility  posx  ETV
vector 52  LocScenario.node[7].veinsmobility  posy  ETV
vector 53  LocScenario.node[7].veinsmobility  speed  ETV
vector 54  LocScenario.node[7].veinsmobility  acceleration  ETV
vector 55  LocScenario.node[7].veinsmobility  co2emission  ETV
vector 58  LocScenario.node[8].veinsmobility  posx  ETV
vector 59  LocScenario.node[8].veinsmobility  posy  ETV
vector 60  LocScenario.node[8].veinsmobility  speed  ETV
vector 61  LocScenario.node[8].veinsmobility  acceleration  ETV
vector 62  LocScenario.node[8].veinsmobility  co2emission  ETV
vector 65  LocScenario.node[9].veinsmobility  posx  ETV
vector 66  LocScenario.node[9].veinsmobility  posy  ETV
vector 67  LocScenario.node[9].veinsmobility  speed  ETV
vector 68  LocScenario.node[9].veinsmobility  acceleration  ETV
vector 69  LocScenario.node[9].veinsmobility  co2emission  ETV
6	22	0.3	0.973
6	32	0.4	7.416862524592
6	42	0.5	0.973
6	52	0.6	5.9169191270218
6	62	0.7	1.8586875852461
6	72	0.8	1.0251922919178
6	82	0.9	6.5022374036395
6	92	1	1.6321690744983
6	102	1.1	5.4230492827406
6	133	1.2	0.973
6	164	1.3	3.0014065884235
6	195	1.4	2.0662192454
6	226	1.5	3.1013252253717
6	257	1.6	2.3380356270536
6	288	1.7	2.8968894511766
6	319	1.8	1.4528361471601
6	350	1.9	3.1226419949351
6	381	2	3.4020710176966
6	412	2.1	4.0410885684243
6	476	2.2	2.4708644671001
6	540	2.3	3.7591736939611
6	604	2.4	3.2461964149495
6	668	2.5	0.973
6	732	2.6	7.1190321175009
6	796	2.7	4.2786391835871
6	860	2.8	0.973
6	924	2.9	0.973
6	988	3	4.2159060822294
6	1052	3.1	6.8964545182349
6	1161	3.2	0.61024036670996
6	1270	3.3	0.973
6	1379	3.4	6.0067687720394
6	1488	3.5	0.973
6	1597	3.6	7.4460591998727
6	1706	3.7	0.973
6	1815	3.8	4.9612353794755
6	1924	3.9	0.973
6	2033	4	8.8171115257382
6	2142	4.1	1.8893490751091
6	2308	4.2	3.0641361231698
6	2474	4.3	0.99436491356587
6	2640	4.4	0.973
6	2806	4.5	5.8821866312869
6	2972	4.6	2.73371570136
6	3138	4.7	5.63695146273
6	3304	4.8	1.8219617911016
6	3470	4.9	0.973
6	3636	5	4.9701494313638
6	3802	5.1	0.973
6	4037	5.2	6.2534272720542
6	4272	5.3	1.3599639350561
6	4507	5.4	4.2732526162467
6	4742	5.5	0.973
6	4977	5.6	3.4328919376802
6	5212	5.7	0.973
6	5447	5.8	2.7883021600945
6	5682	5.9	8.0321350004228
6	5917	6	0.973
6	6152	6.1	3.0534611917405
6	6468	6.2	2.6807971200661
6	6784	6.3	8.7102415838714
6	7100	6.4	0.973
6	7416	6.5	2.2652908684907
6	7732	6.6	3.4351708647389
6	8048	6.7	4.6350164320121
6	8364	6.8	0.83868513363286
6	8680	6.9	3.4144103935414
6	8996	7	4.348546614835
6	9312	7.1	1.7413598747966
6	9721	7.2	0.973
6	10130	7.3	5.9648656282299
6	10539	7.4	2.6508432575265
6	10948	7.5	0.973
6	11357	7.6	4.4811994753535
6	11766	7.7	4.542520287904
6	12175	7.8	2.2137608721302
6	12584	7.9	2.5966170971219
6	12993	8	4.5441238977151
6	13402	8.1	0.973
6	13916	8.2	5.295071462365
6	14430	8.3	3.3876283063954
6	14944	8.4	1.4538582584564
6	15458	8.5	1.9562255698532
6	15972	8.6	0.94012768985495
6	16486	8.7	5.9348830148658
6	17000	8.8	0.973
6	17514	8.9	5.7807551332715
6	18028	9	0.973
6	18542	9.1	5.5994861934697
6	19173	9.2	5.4520750028557
6	19804	9.3	0.973
6	20435	9.4	3.0965905399374
6	21066	9.5	3.4824642553155
6	21697	9.6	3.0980883646197
6	22328	9.7	0.89151430873195
6	22959	9.8	5.9878540490883
6	23590	9.9	5.1779901772656
6	24221	10	1.4746299600945
6	24852	10.1	3.3801328400306
6	25483	10.2	1.0025235437428
6	26114	10.3	3.634829504275
6	26745	10.4	3.7804710147239
6	27376	10.5	0.973
6	28007	10.6	5.5423501746527
6	28638	10.7	3.3669501768751
6	29269	10.8	4.1577386597455
6	29900	10.9	0.973
6	30531	11	4.9446242546945
6	31162	11.1	2.3809305800723
6	31793	11.2	3.8822643850925
6	32424	11.3	1.2304010216332
6	33055	11.4	0.77920713707614
6	33686	11.5	3.7545773299647
6	34317	11.6	7.0074915218023
6	34948	11.7	0.973
6	35579	11.8	0.73729310592862
6	36210	11.9	2.4119917747349
6	36841	12	5.8826143184984
6	37472	12.1	0.973
6	38103	12.2	6.0913143999614
6	38734	12.3	4.9317029065771
6	39365	12.4	0.75925132911984
6	39996	12.5	2.2718780412591
6	40627	12.6	3.9730029827613
6	41258	12.7	0.973
6	41889	12.8	8.2537247084467
6	42520	12.9	1.9173839819642
6	43151	13	0.973
6	43782	13.1	5.9207017264611
6	44413	13.2	2.2938500857552
6	45044	13.3	3.0073561191004
6	45675	13.4	2.2503931583805
6	46306	13.5	1.8180663712924
6	46937	13.6	1.6742871132477
6	47568	13.7	5.5529514528313
6	48199	13.8	0.973
6	48830	13.9	4.5865339125283
6	49461	14	0.76826592293792
6	50092	14.1	4.2367294504383
6	50723	14.2	1.6713286870368
6	51354	14.3	4.9523275002939
6	51985	14.4	6.1448606626298
6	52616	14.5	0.973
6	53247	14.6	5.0585801196772
6	53878	14.7	2.9128562903415
6	54509	14.8	1.6406151053045
6	55140	14.9	1.4006302238743
6	55771	15	4.9693050964367
6	56402	15.1	0.973
6	57033	15.2	8.5747456397624
6	57664	15.3	0.973
6	58295	15.4	1.1394046310506
6	58926	15.5	2.9001845109855
6	59557	15.6	7.436829082034
6	60188	15.7	0.973
6	60819	15.8	5.531460636713
6	61450	15.9	1.760214009196
6	62081	16	1.7307063741309
6	62712	16.1	4.452781740651
6	63343	16.2	0.973
6	63974	16.3	7.3108445398158
6	64605	16.4	0.973
6	65236	16.5	6.2989202128711
6	65867	16.6	0.973
6	66498	16.7	5.9574921207501
6	67129	16.8	1.5873816796899
6	67760	16.9	2.0214829799823
6	68391	17	1.0239550535928
6	69022	17.1	1.6821174226276
6	69653	17.2	7.5283334577424
6	70284	17.3	0.973
6	70915	17.4	7.3348537647579
6	71546	17.5	0.973
6	72177	17.6	5.060606233952
6	72808	17.7	3.4668582645821
6	73439	17.8	0.973
6	74070	17.9	7.3679478564678
6	74701	18	2.4090738958452
6	75332	18.1	0.973
6	75963	18.2	2.1232496967541
6	76594	18.3	5.0492005023961
6	77225	18.4	0.93826169000228
6	77856	18.5	4.3396492642024
6	78487	18.6	3.3122663039908
6	79118	18.7	1.0105014250528
6	79749	18.8	4.2161970468143
6	80380	18.9	1.0019058772138
6	81011	19	2.2703720125795
6	81642	19.1	4.425736102945
6	82273	19.2	5.0877132121026
6	82904	19.3	0.973
6	83535	19.4	3.2266153415776
6	84166	19.5	3.7206630036884
6	84797	19.6	1.6002508185865
5	22	0.3	-1.2446540950099
5	32	0.4	0.94783142153172
5	42	0.5	-0.81868145717309
5	52	0.6	0.63918083121536
5	62	0.7	-0.19934032461606
5	72	0.8	-0.37128727620001
5	82	0.9	0.75885284503457
5	92	1	-0.24650922666769
5	102	1.1	0.53423760689327
5	133	1.2	-0.54479101824107
5	164	1.3	0.03655269341543
5	195	1.4	-0.15642029803711
5	226	1.5	0.057567738136264
5	257	1.6	-0.10005408807192
5	288	1.7	0.015561596723259
5	319	1.8	-0.28276242443823
5	350	1.9	0.063077301159495
5	381	2	0.12050021728498
5	412	2.1	0.25166742107832
5	476	2.2	-0.072841993626191
5	540	2.3	0.19285503833089
5	604	2.4	0.086510981759034
5	668	2.5	-0.93033642678055
5	732	2.6	0.8869282772066
5	796	2.7	0.29857773133553
5	860	2.8	-0.5980609487742
5	924	2.9	-0.47470186201391
5	988	3	0.28934585798996
5	1052	3.1	0.83829098113348
5	1161	3.2	-0.45789488456212
5	1270	3.3	-0.72519853170963
5	1379	3.4	0.65822637244128
5	1488	3.5	-0.47915394734591
5	1597	3.6	0.95207549135669
5	1706	3.7	-0.94494975239506
5	1815	3.8	0.4421647532843
5	1924	3.9	-0.69309330957474
5	2033	4	1.2345894901082
5	2142	4.1	-0.19403827979694
5	2308	4.2	0.048363130493065
5	2474	4.3	-0.37836817193309
5	2640	4.4	-0.65168433368672
5	2806	4.5	0.63266458683646
5	2972	4.6	-0.018511302233648
5	3138	4.7	0.57847091134171
5	3304	4.8	-0.20795933788175
5	3470	4.9	-0.72770770911593
5	3636	5	0.44364238933191
5	3802	5.1	-0.49172256321178
5	4037	5.2	0.7075134531129
5	4272	5.3	-0.30268598811237
5	4507	5.4	0.29852898474783
5	4742	5.5	-0.47132742374668
5	4977	5.6	0.12630555934738
5	5212	5.7	-0.53860525181516
5	5447	5.8	-0.0052866450743849
5	5682	5.9	1.0733452672837
5	5917	6	-1.1055043455446
5	6152	6.1	0.049664295720895
5	6468	6.2	-0.027559130801826
5	6784	6.3	1.212080829055
5	7100	6.4	-0.57191026776565
5	7416	6.5	-0.11520286127922
5	7732	6.6	0.12639369941315
5	8048	6.7	0.37260737253817
5	8364	6.8	-0.41053476664235
5	8680	6.9	0.12177218571303
5	8996	7	0.31335303394592
5	9312	7.1	-0.22427990157158
5	9721	7.2	-0.5879970914917
5	10130	7.3	0.64803400426172
5	10539	7.4	-0.036426445352831
5	10948	7.5	-0.59694246172441
5	11357	7.6	0.34300947359299
5	11766	7.7	0.35389947611836
5	12175	7.8	-0.12665908243505
5	12584	7.9	-0.0474025018746
5	12993	8	0.35332226566968
5	13402	8.1	-0.82842734293081
5	13916	8.2	0.51011665631087
5	14430	8.3	0.11550144071226
5	14944	8.4	-0.28333958312871
5	15458	8.5	-0.17900870069859
5	15972	8.6	-0.38881670320407
5	16486	8.7	0.64293495046439
5	17000	8.8	-0.51487764276096
5	17514	8.9	0.61046344002243
5	18028	9	-0.71882693287918
5	18542	9.1	0.57389844721182
5	19173	9.2	0.54017205613203
5	19804	9.3	-1.1158745223889
5	20435	9.4	0.058174555213206
5	21066	9.5	0.13762762523257
5	21697	9.6	0.057783069112318
5	22328	9.7	-0.39873316448649
5	22959	9.8	0.65464495352938
5	23590	9.9	0.48434276992921
5	24221	10	-0.2793585753767
5	24852	10.1	0.11397209726276
5	25483	10.2	-0.37654455557931
5	26114	10.3	0.16744052008725
5	26745	10.4	0.19670819835735
5	27376	10.5	-0.78986194059251
5	28007	10.6	0.56200679477769
5	28638	10.7	0.11174564945978
5	29269	10.8	0.27389403416308
5	29900	10.9	-0.81807805250865
5	30531	11	0.43837636613752
5	31162	11.1	-0.09146828060036
5	31793	11.2	0.21815137523227
5	32424	11.3	-0.32929169135169
5	33055	11.4	-0.42217749275732
5	33686	11.5	0.19414343168027
5	34317	11.6	0.86164637056644
5	34948	11.7	-0.52936266723552
5	35579	11.8	-0.43098083864898
5	36210	11.9	-0.083539987565011
5	36841	12	0.63220356458331
5	37472	12.1	-0.6191671213135
5	38103	12.2	0.67498092786408
5	38734	12.3	0.43292630906215
5	39365	12.4	-0.42714517079293
5	39996	12.5	-0.11418702052907
5	40627	12.6	0.23655834614765
5	41258	12.7	-0.79651613614985
5	41889	12.8	1.1179515683325
5	42520	12.9	-0.18837541488466
5	43151	13	-0.59999095527456
5	43782	13.1	0.63777655567975
5	44413	13.2	-0.11046191011555
5	45044	13.3	0.036750715039666
5	45675	13.4	-0.11921219713987
5	46306	13.5	-0.20805360570083
5	46937	13.6	-0.23728444874287
5	47568	13.7	0.56234027561732
5	48199	13.8	-0.8946763710119
5	48830	13.9	0.36551594112535
5	49461	14	-0.42441087041514
5	50092	14.1	0.29372517999725
5	50723	14.2	-0.23718876771163
5	51354	14.3	0.44083811331074
5	51985	14.4	0.68302843468267
5	52616	14.5	-1.0308306431165
5	53247	14.6	0.46218397680203
5	53878	14.7	0.018345369817716
5	54509	14.8	-0.24424491724933
5	55140	14.9	-0.2933956255205
5	55771	15	0.44413492146415
5	56402	15.1	-0.60295479230117
5	57033	15.2	1.1847247852245
5	57664	15.3	-0.6468632365344
5	58295	15.4	-0.34761140209159
5	58926	15.5	0.017379992757931
5	59557	15.6	0.95019096431788
5	60188	15.7	-0.77010099377947
5	60819	15.8	0.55835251174866
5	61450	15.9	-0.22008627727626
5	62081	16	-0.22569602611476
5	62712	16.1	0.3361048722174
5	63343	16.2	-0.59089015137868
5	63974	16.3	0.92410396684425
5	64605	16.4	-0.72775273062287
5	65236	16.5	0.71541501104367
5	65867	16.6	-0.7084138439037
5	66498	16.7	0.64538021218031
5	67129	16.8	-0.2560505680507
5	67760	16.9	-0.16593067557551
5	68391	17	-0.37170622111297
5	69022	17.1	-0.23482966078447
5	69653	17.2	0.97006284208039
5	70284	17.3	-0.90363121996635
5	70915	17.4	0.9299102865625
5	71546	17.5	-0.86301834622862
5	72177	17.6	0.46269489915577
5	72808	17.7	0.13252504460979
5	73439	17.8	-0.71351977579763
5	74070	17.9	0.93709410524461
5	74701	18	-0.086512420093641
5	75332	18.1	-0.5055607463466
5	75963	18.2	-0.14387440585995
5	76594	18.3	0.4598877204349
5	77225	18.4	-0.38953283461741
5	77856	18.5	0.31355540810619
5	78487	18.6	0.10067677586338
5	79118	18.7	-0.37462473516353
5	79749	18.8	0.28795518821571
5	80380	18.9	-0.3762792461086
5	81011	19	-0.11313616335393
5	81642	19.1	0.33207160013262
5	82273	19.2	0.46645835547242
5	82904	19.3	-0.77781013692729
5	83535	19.4	0.084722104272821
5	84166	19.5	0.1863065942656
5	84797	19.6	-0.25214851978234
4	12	0.2	20.118555123052
4	22	0.3	19.994089713551
4	32	0.4	20.088872855704
4	42	0.5	20.007004709987
4	52	0.6	20.070922793108
4	62	0.7	20.050988760646
4	72	0.8	20.013860033026
4	82	0.9	20.08974531753
4	92	1	20.065094394863
4	102	1.1	20.118518155552
4	133	1.2	20.064039053728
4	164	1.3	20.06769432307
4	195	1.4	20.052052293266
4	226	1.5	20.05780906708
4	257	1.6	20.047803658273
4	288	1.7	20.049359817945
4	319	1.8	20.021083575501
4	350	1.9	20.027391305617
4	381	2	20.039441327346
4	412	2.1	20.064608069453
4	476	2.2	20.057323870091
4	540	2.3	20.076609373924
4	604	2.4	20.0852604721
4	668	2.5	19.992226829422
4	732	2.6	20.080919657142
4	796	2.7	20.110777430276
4	860	2.8	20.050971335399
4	924	2.9	20.003501149197
4	988	3	20.032435734996
4	1052	3.1	20.116264833109
4	1161	3.2	20.070475344653
4	1270	3.3	19.997955491482
4	1379	3.4	20.063778128726
4	1488	3.5	20.015862733992
4	1597	3.6	20.111070283127
4	1706	3.7	20.016575307888
4	1815	3.8	20.060791783216
4	1924	3.9	19.991482452259
4	2033	4	20.11494140127
4	2142	4.1	20.09553757329
4	2308	4.2	20.100373886339
4	2474	4.3	20.062537069146
4	2640	4.4	19.997368635777
4	2806	4.5	20.060635094461
4	2972	4.6	20.058783964238
4	3138	4.7	20.116631055372
4	3304	4.8	20.095835121584
4	3470	4.9	20.023064350672
4	3636	5	20.067428589605
4	3802	5.1	20.018256333284
4	4037	5.2	20.089007678595
4	4272	5.3	20.058739079784
4	4507	5.4	20.088591978259
4	4742	5.5	20.041459235884
4	4977	5.6	20.054089791819
4	5212	5.7	20.000229266637
4	5447	5.8	19.99970060213
4	5682	5.9	20.107035128858
4	5917	6	19.996484694304
4	6152	6.1	20.001451123876
4	6468	6.2	19.998695210796
4	6784	6.3	20.119903293701
4	7100	6.4	20.062712266925
4	7416	6.5	20.051191980797
4	7732	6.6	20.063831350738
4	8048	6.7	20.101092087992
4	8364	6.8	20.060038611328
4	8680	6.9	20.072215829899
4	8996	7	20.103551133294
4	9312	7.1	20.081123143137
4	9721	7.2	20.022323433987
4	10130	7.3	20.087126834414
4	10539	7.4	20.083484189878
4	10948	7.5	20.023789943706
4	11357	7.6	20.058090891065
4	11766	7.7	20.093480838677
4	12175	7.8	20.080814930433
4	12584	7.9	20.076074680246
4	12993	8	20.111406906813
4	13402	8.1	20.02856417252
4	13916	8.2	20.079575838151
4	14430	8.3	20.091125982222
4	14944	8.4	20.062792023909
4	15458	8.5	20.044891153839
4	15972	8.6	20.006009483519
4	16486	8.7	20.070302978565
4	17000	8.8	20.018815214289
4	17514	8.9	20.079861558292
4	18028	9	20.007978865004
4	18542	9.1	20.065368709725
4	19173	9.2	20.119385915338
4	19804	9.3	20.007798463099
4	20435	9.4	20.01361591862
4	21066	9.5	20.027378681144
4	21697	9.6	20.033156988055
4	22328	9.7	19.993283671606
4	22959	9.8	20.058748166959
4	23590	9.9	20.107182443952
4	24221	10	20.079246586415
4	24852	10.1	20.090643796141
4	25483	10.2	20.052989340583
4	26114	10.3	20.069733392592
4	26745	10.4	20.089404212427
4	27376	10.5	20.010418018368
4	28007	10.6	20.066618697846
4	28638	10.7	20.077793262792
4	29269	10.8	20.105182666208
4	29900	10.9	20.023374860957
4	30531	11	20.067212497571
4	31162	11.1	20.058065669511
4	31793	11.2	20.079880807034
4	32424	11.3	20.046951637899
4	33055	11.4	20.004733888623
4	33686	11.5	20.024148231791
4	34317	11.6	20.110312868848
4	34948	11.7	20.057376602124
4	35579	11.8	20.01427851826
4	36210	11.9	20.005924519503
4	36841	12	20.069144875961
4	37472	12.1	20.00722816383
4	38103	12.2	20.074726256616
4	38734	12.3	20.118018887523
4	39365	12.4	20.075304370443
4	39996	12.5	20.06388566839
4	40627	12.6	20.087541503005
4	41258	12.7	20.00788988939
4	41889	12.8	20.119685046223
4	42520	12.9	20.100847504735
4	43151	13	20.040848409208
4	43782	13.1	20.104626064776
4	44413	13.2	20.093579873764
4	45044	13.3	20.097254945268
4	45675	13.4	20.085333725554
4	46306	13.5	20.064528364984
4	46937	13.6	20.04079992011
4	47568	13.7	20.097033947671
4	48199	13.8	20.00756631057
4	48830	13.9	20.044117904683
4	49461	14	20.001676817641
4	50092	14.1	20.031049335641
4	50723	14.2	20.00733045887
4	51354	14.3	20.051414270201
4	51985	14.4	20.119717113669
4	52616	14.5	20.016634049357
4	53247	14.6	20.062852447038
4	53878	14.7	20.064686984019
4	54509	14.8	20.040262492294
4	55140	14.9	20.010922929742
4	55771	15	20.055336421889
4	56402	15.1	19.995040942659
4	57033	15.2	20.113513421181
4	57664	15.3	20.048827097528
4	58295	15.4	20.014065957319
4	58926	15.5	20.015803956594
4	59557	15.6	20.110823053026
4	60188	15.7	20.033812953648
4	60819	15.8	20.089648204823
4	61450	15.9	20.067639577095
4	62081	16	20.045069974484
4	62712	16.1	20.078680461706
4	63343	16.2	20.019591446568
4	63974	16.3	20.112001843252
4	64605	16.4	20.03922657019
4	65236	16.5	20.110768071294
4	65867	16.6	20.039926686904
4	66498	16.7	20.104464708122
4	67129	16.8	20.078859651317
4	67760	16.9	20.062266583759
4	68391	17	20.025095961648
4	69022	17.1	20.00161299557
4	69653	17.2	20.098619279778
4	70284	17.3	20.008256157781
4	70915	17.4	20.101247186437
4	71546	17.5	20.014945351814
4	72177	17.6	20.06121484173
4	72808	17.7	20.074467346191
4	73439	17.8	20.003115368611
4	74070	17.9	20.096824779136
4	74701	18	20.088173537126
4	75332	18.1	20.037617462492
4	75963	18.2	20.023230021906
4	76594	18.3	20.069218793949
4	77225	18.4	20.030265510487
4	77856	18.5	20.061621051298
4	78487	18.6	20.071688728884
4	79118	18.7	20.034226255368
4	79749	18.8	20.06302177419
4	80380	18.9	20.025393849579
4	81011	19	20.014080233243
4	81642	19.1	20.047287393257
4	82273	19.2	20.093933228804
4	82904	19.3	20.016152215111
4	83535	19.4	20.024624425538
4	84166	19.5	20.043255084965
4	84797	19.6	20.018040232987
3	2	0.1	416.30025728988
3	12	0.2	416.30025728988
3	22	0.3	414.28850327367
3	32	0.4	412.28919517049
3	42	0.5	410.28040923126
3	52	0.6	408.27980969359
3	62	0.7	406.27281867007
3	72	0.8	404.26782094923
3	82	0.9	402.26653591385
3	92	1	400.25766273284
3	102	1.1	398.25125451974
3	133	1.2	396.23950420009
3	164	1.3	394.23320151578
3	195	1.4	392.22653332298
3	226	1.5	390.22142925424
3	257	1.6	388.21574953717
3	288	1.7	386.2110703105
3	319	1.8	384.20623547571
3	350	1.9	382.20422812252
3	381	2	380.20159002813
3	412	2.1	378.19774699237
3	476	2.2	376.19138740936
3	540	2.3	374.18575620953
3	604	2.4	372.17819655662
3	668	2.5	370.16977183753
3	732	2.6	368.17065001337
3	796	2.7	366.16265935388
3	860	2.8	364.1516830677
3	924	2.9	362.1466870893
3	988	3	360.14643789003
3	1052	3.1	358.14329537816
3	1161	3.2	356.13177037939
3	1270	3.3	354.12482409845
3	1379	3.4	352.12512943698
3	1488	3.5	350.11885284386
3	1597	3.6	348.11736754848
3	1706	3.7	346.10636197849
3	1815	3.8	344.10480542932
3	1924	3.9	342.09882745568
3	2033	4	340.09978006547
3	2142	4.1	338.08838740321
3	2308	4.2	336.07893502585
3	2474	4.3	334.06899904158
3	2640	4.4	332.06284654815
3	2806	4.5	330.06321056929
3	2972	4.6	328.05724826374
3	3138	4.7	326.05147106186
3	3304	4.8	324.03990944271
3	3470	4.9	322.03042731202
3	3636	5	320.0282218913
3	3802	5.1	318.02158027051
3	4037	5.2	316.01985562727
3	4272	5.3	314.01105620644
3	4507	5.4	312.00528349279
3	4742	5.5	309.99652563989
3	4977	5.6	307.99248082345
3	5212	5.7	305.98717301514
3	5447	5.8	303.98725098762
3	5682	5.9	301.98738182389
3	5917	6	299.97677974898
3	6152	6.1	297.97723215981
3	6468	6.2	295.97718795273
3	6784	6.3	293.97741932306
3	7100	6.4	291.96553049658
3	7416	6.5	289.95936048426
3	7732	6.6	287.95434244243
3	8048	6.7	285.94806052737
3	8364	6.8	283.93805272657
3	8680	6.9	281.93215006631
3	8996	7	279.92502974564
3	9312	7.1	277.91477605271
3	9721	7.2	275.90676504564
3	10130	7.3	273.90463371286
3	10539	7.4	271.89602236695
3	10948	7.5	269.88777526713
3	11357	7.6	267.88549729077
3	11766	7.7	265.87978939271
3	12175	7.8	263.87054267844
3	12584	7.9	261.86256249109
3	12993	8	259.85505630485
3	13402	8.1	257.8440170742
3	13916	8.2	255.84126169904
3	14430	8.3	253.83340541467
3	14944	8.4	251.82439417416
3	15458	8.5	249.81821618654
3	15972	8.6	247.81382819562
3	16486	8.7	245.81332817558
3	17000	8.8	243.80639913038
3	17514	8.9	241.80461860187
3	18028	9	239.79673374693
3	18542	9.1	237.79603679867
3	19173	9.2	235.78960115547
3	19804	9.3	233.77776406422
3	20435	9.4	231.77708515524
3	21066	9.5	229.77582453006
3	21697	9.6	227.77318769806
3	22328	9.7	225.76997306452
3	22959	9.8	223.77074556147
3	23590	9.9	221.76497193915
3	24221	10	219.75435513347
3	24852	10.1	217.74653177261
3	25483	10.2	215.73756874828
3	26114	10.3	213.73237097954
3	26745	10.4	211.72549889007
3	27376	10.5	209.71665981785
3	28007	10.6	207.71571896656
3	28638	10.7	205.70915833086
3	29269	10.8	203.70148029503
3	29900	10.9	201.69106345704
3	30531	11	199.68882698686
3	31162	11.1	197.68220697417
3	31793	11.2	195.67650159815
3	32424	11.3	193.66861481843
3	33055	11.4	191.6640207895
3	33686	11.5	189.66364832251
3	34317	11.6	187.66133451915
3	34948	11.7	185.65040468677
3	35579	11.8	183.64476821401
3	36210	11.9	181.64344133221
3	36841	12	179.64294980814
3	37472	12.1	177.63613656736
3	38103	12.2	175.63551468544
3	38734	12.3	173.62814333476
3	39365	12.4	171.61644293939
3	39996	12.5	169.60901378024
3	40627	12.6	167.60272643369
3	41258	12.7	165.59407362302
3	41889	12.8	163.59338557188
3	42520	12.9	161.58151856905
3	43151	13	159.57153522533
3	43782	13.1	157.56755148848
3	44413	13.2	155.55719030782
3	45044	13.3	153.54793369054
3	45675	13.4	151.53830958464
3	46306	13.5	149.52987754058
3	46937	13.6	147.52352592761
3	47568	13.7	145.51954703943
3	48199	13.8	143.50994503218
3	48830	13.9	141.50928933728
3	49461	14	139.50497866738
3	50092	14.1	137.50491189207
3	50723	14.2	135.50190801313
3	51354	14.3	133.50127590222
3	51985	14.4	131.49623563257
3	52616	14.5	129.48436542316
3	53247	14.6	127.48280300013
3	53878	14.7	125.4766189705
3	54509	14.8	123.47025149643
3	55140	14.9	121.46632634832
3	55771	15	119.46533500844
3	56402	15.1	117.45990254341
3	57033	15.2	115.46049932212
3	57664	15.3	113.44924945066
3	58295	15.4	111.44446788522
3	58926	15.5	109.44316225844
3	59557	15.6	107.44168284051
3	60188	15.7	105.43070199229
3	60819	15.8	103.4274217655
3	61450	15.9	101.41855829527
3	62081	16	99.411895576791
3	62712	16.1	97.407489704709
3	63343	16.2	95.399722953465
3	63974	16.3	93.397864805637
3	64605	16.4	91.386766084342
3	65236	16.5	89.38294452321
3	65867	16.6	87.371969172886
3	66498	16.7	85.368077603614
3	67129	16.8	83.357732557808
3	67760	16.9	81.349947888507
3	68391	17	79.343822442252
3	69022	17.1	77.341413870686
3	69653	17.2	75.341353477259
3	70284	17.3	73.331592944798
3	70915	17.4	71.330868268663
3	71546	17.5	69.320844958793
3	72177	17.6	67.319451397002
3	72808	17.7	65.313431119644
3	73439	17.8	63.306085658697
3	74070	17.9	61.305875035545
3	74701	18	59.296293944095
3	75332	18.1	57.287577933201
3	75963	18.2	55.28391727472
3	76594	18.3	53.281695287715
3	77225	18.4	51.274874655514
3	77856	18.5	49.271949155144
3	78487	18.6	47.265888258878
3	79118	18.7	45.258820645644
3	79749	18.8	43.255499090768
3	80380	18.9	41.249298129279
3	81011	19	39.246859770423
3	81642	19.1	37.245552716124
3	82273	19.2	35.240925113351
3	82904	19.3	33.231633162346
3	83535	19.4	31.230118920314
3	84166	19.5	29.22775749998
3	84797	19.6	27.223533107693
2	2	0.1	23.397598627787
2	12	0.2	23.397598627787
2	22	0.3	23.41637540459
2	32	0.4	23.435036017025
2	42	0.5	23.453785091177
2	52	0.6	23.472457757262
2	62	0.7	23.491190078504
2	72	0.8	23.509903795187
2	82	0.9	23.528582859388
2	92	1	23.547332747814
2	102	1.1	23.566059629375
2	133	1.2	23.584836371676
2	164	1.3	23.60356226828
2	195	1.4	23.622291576371
2	226	1.5	23.641006285655
2	257	1.6	23.659726367773
2	288	1.7	23.678437111778
2	319	1.8	23.697149308158
2	350	1.9	23.715835114138
2	381	2	23.734526807164
2	412	2.1	23.753229746552
2	476	2.2	23.771956174223
2	540	2.3	23.790675803503
2	604	2.4	23.809413432068
2	668	2.5	23.828159134759
2	732	2.6	23.846818008553
2	796	2.7	23.865559659933
2	860	2.8	23.884329177765
2	924	2.9	23.903042878184
2	988	3	23.921712274373
2	1052	3.1	23.940408675397
2	1161	3.2	23.959183314657
2	1270	3.3	23.977915218293
2	1379	3.4	23.996579438684
2	1488	3.5	24.015305091766
2	1597	3.6	24.033986025101
2	1706	3.7	24.052755816254
2	1815	3.8	24.07143741464
2	1924	3.9	24.090160280546
2	2033	4	24.108818459608
2	2142	4.1	24.1275918637
2	2308	4.2	24.146347158076
2	2474	4.3	24.165106966213
2	2640	4.4	24.183831461006
2	2806	4.5	24.20249513368
2	2972	4.6	24.221217853348
2	3138	4.7	24.239938845344
2	3304	4.8	24.258713826401
2	3470	4.9	24.27746939848
2	3636	5	24.296157053131
2	3802	5.1	24.314886113211
2	4037	5.2	24.333569280508
2	4272	5.3	24.352318480491
2	4507	5.4	24.371039430596
2	4742	5.5	24.389788242602
2	4977	5.6	24.408493065318
2	5212	5.7	24.427209676212
2	5447	5.8	24.445876018732
2	5682	5.9	24.464541867846
2	5917	6	24.483307892964
2	6152	6.1	24.501970740651
2	6468	6.2	24.520638223538
2	6784	6.3	24.539303134314
2	7100	6.4	24.558081169372
2	7416	6.5	24.576805827678
2	7732	6.6	24.595519734027
2	8048	6.7	24.614245436781
2	8364	6.8	24.63300591522
2	8680	6.9	24.651728078186
2	8996	7	24.670461606229
2	9312	7.1	24.689224379711
2	9721	7.2	24.707966221006
2	10130	7.3	24.726653184154
2	10539	7.4	24.745400628733
2	10948	7.5	24.764144673608
2	11357	7.6	24.782833005459
2	11766	7.7	24.801553350605
2	12175	7.8	24.820306725417
2	12584	7.9	24.839048279055
2	12993	8	24.857785408587
2	13402	8.1	24.876555513913
2	13916	8.2	24.895248301583
2	14430	8.3	24.913988698768
2	14944	8.4	24.932739875777
2	15458	8.5	24.951464608521
2	15972	8.6	24.970172634267
2	16486	8.7	24.988844371501
2	17000	8.8	25.007576114267
2	17514	8.9	25.026259803171
2	18028	9	25.045000467021
2	18542	9.1	25.063674042291
2	19173	9.2	25.082401179872
2	19804	9.3	25.101178732058
2	20435	9.4	25.119852138958
2	21066	9.5	25.138530975326
2	21697	9.6	25.157222656569
2	22328	9.7	25.175919730743
2	22959	9.8	25.194579590895
2	23590	9.9	25.213300549481
2	24221	10	25.232066712089
2	24852	10.1	25.250806801981
2	25483	10.2	25.269557528963
2	26114	10.3	25.288273112799
2	26745	10.4	25.307004323966
2	27376	10.5	25.325753894037
2	28007	10.6	25.344429745784
2	28638	10.7	25.363158049987
2	29269	10.8	25.381896783483
2	29900	10.9	25.400661079686
2	30531	11	25.419349024138
2	31162	11.1	25.438077882538
2	31793	11.2	25.456798204144
2	32424	11.3	25.475538885959
2	33055	11.4	25.494248834768
2	33686	11.5	25.512919381481
2	34317	11.6	25.531608047725
2	34948	11.7	25.550377131979
2	35579	11.8	25.569096810474
2	36210	11.9	25.587776265251
2	36841	12	25.606447923187
2	37472	12.1	25.625178585088
2	38103	12.2	25.643851459724
2	38734	12.3	25.662587330764
2	39365	12.4	25.681363607094
2	39996	12.5	25.700100017691
2	40627	12.6	25.71882577114
2	41258	12.7	25.737573602732
2	41889	12.8	25.75624709496
2	42520	12.9	25.775024926327
2	43151	13	25.793785176495
2	43782	13.1	25.812489429122
2	44413	13.2	25.831253205845
2	45044	13.3	25.850006673087
2	45675	13.4	25.868763570296
2	46306	13.5	25.887509341355
2	46937	13.6	25.906235694637
2	47568	13.7	25.924939902008
2	48199	13.8	25.943696592959
2	48830	13.9	25.96236978319
2	49461	14	25.981077087258
2	50092	14.1	25.999744780786
2	50723	14.2	26.018439887875
2	51354	14.3	26.037112857983
2	51985	14.4	26.055826971796
2	52616	14.5	26.074604833092
2	53247	14.6	26.093286486301
2	53878	14.7	26.112011275438
2	54509	14.8	26.13073777676
2	55140	14.9	26.149441482547
2	55771	15	26.168117805531
2	56402	15.1	26.186835579914
2	57033	15.2	26.205497080138
2	57664	15.3	26.224269151487
2	58295	15.4	26.242980850675
2	58926	15.5	26.261660107068
2	59557	15.6	26.280340985546
2	60188	15.7	26.299110545958
2	60819	15.8	26.317808232349
2	61450	15.9	26.336558030138
2	62081	16	26.355287287135
2	62712	16.1	26.373995479775
2	63343	16.2	26.3927350413
2	63974	16.3	26.411419454667
2	64605	16.4	26.430190115251
2	65236	16.5	26.448892854205
2	65867	16.6	26.467662363302
2	66498	16.7	26.48636575568
2	67129	16.8	26.505129381807
2	67760	16.9	26.523869110571
2	68391	17	26.542593352918
2	69022	17.1	26.561282903684
2	69653	17.2	26.579950537647
2	70284	17.3	26.598708708199
2	70915	17.4	26.617382542268
2	71546	17.5	26.636143165462
2	72177	17.6	26.654823242599
2	72808	17.7	26.673546503348
2	73439	17.8	26.692282132745
2	74070	17.9	26.710951168883
2	74701	18	26.729707664615
2	75332	18.1	26.748456086088
2	75963	18.2	26.767157323252
2	76594	18.3	26.785845132525
2	77225	18.4	26.804575863414
2	77856	18.5	26.823270238954
2	78487	18.6	26.841993878821
2	79118	18.7	26.860726914916
2	79749	18.8	26.879424987044
2	80380	18.9	26.898149934215
2	81011	19	26.916839763002
2	81642	19.1	26.935519032719
2	82273	19.2	26.954229294891
2	82904	19.3	26.972983091921
2	83535	19.4	26.991664295431
2	84166	19.5	27.01035340611
2	84797	19.6	27.029059904903
13	164	1.3	3.9217108322178
13	195	1.4	1.2817545968797
13	226	1.5	2.9704112813319
13	257	1.6	8.7179893490528
13	288	1.7	0.973
13	319	1.8	5.6574720103428
13	350	1.9	0.973
13	381	2	8.7739026982819
13	412	2.1	2.233727282472
13	476	2.2	1.0655202030838
13	540	2.3	8.9414083914384
13	604	2.4	4.3476148712446
13	668	2.5	0.973
13	732	2.6	2.1123143987634
13	796	2.7	6.4328199168364
13	860	2.8	5.1038038934964
13	924	2.9	0.973
13	988	3	0.973
13	1052	3.1	8.6757280729298
13	1161	3.2	5.4773920679789
13	1270	3.3	3.4862379791073
13	1379	3.4	1.6444681651223
13	1488	3.5	6.42763738782
13	1597	3.6	0.973
13	1706	3.7	7.1036935401139
13	1815	3.8	0.973
13	1924	3.9	7.310713078707
13	2033	4	3.0446804923824
13	2142	4.1	6.6121265544675
13	2308	4.2	0.973
13	2474	4.3	4.3697717006606
13	2640	4.4	3.3361748234618
13	2806	4.5	0.973
13	2972	4.6	7.2987788870368
13	3138	4.7	3.3356241723939
13	3304	4.8	2.5745350201838
13	3470	4.9	3.9407884159657
13	3636	5	1.8623406118044
13	3802	5.1	3.8089417837978
13	4037	5.2	1.3153563894403
13	4272	5.3	8.7364185018234
13	4507	5.4	0.973
13	4742	5.5	2.4807709891049
13	4977	5.6	3.4142320885542
13	5212	5.7	2.6539878390965
13	5447	5.8	2.2025753448987
13	5682	5.9	4.0561424484872
13	5917	6	9.2437781824044
13	6152	6.1	0.973
13	6468	6.2	4.2623737545059
13	6784	6.3	2.7334117437433
13	7100	6.4	5.254218786737
13	7416	6.5	2.2397323341417
13	7732	6.6	1.4569537227364
13	8048	6.7	3.2731519032917
13	8364	6.8	6.2709744034297
13	8680	6.9	1.5396297454004
13	8996	7	2.8878862208048
13	9312	7.1	4.9793831125516
13	9721	7.2	4.6575800867132
13	10130	7.3	0.973
13	10539	7.4	4.3432415308068
13	10948	7.5	2.643233545269
13	11357	7.6	2.5520623673066
13	11766	7.7	2.5111706899788
13	12175	7.8	3.5948517006336
13	12584	7.9	6.0422830550034
13	12993	8	5.4064177668484
13	13402	8.1	3.3824937875239
13	13916	8.2	0.973
13	14430	8.3	4.7547595816288
13	14944	8.4	9.3330394148248
13	15458	8.5	0.973
13	15972	8.6	0.973
13	16486	8.7	5.972194729011
13	17000	8.8	2.168867340458
13	17514	8.9	5.0439479196309
13	18028	9	5.5634059847482
13	18542	9.1	0.973
13	19173	9.2	3.5471364804353
13	19804	9.3	3.6620094792931
13	20435	9.4	0.973
13	21066	9.5	6.0663521372887
13	21697	9.6	0.973
13	22328	9.7	6.1735406651009
13	22959	9.8	0.80551045839858
13	23590	9.9	0.973
13	24221	10	7.3854367264438
13	24852	10.1	0.973
13	25483	10.2	7.9607592658575
13	26114	10.3	1.0015315464463
13	26745	10.4	2.9066720439741
13	27376	10.5	4.5298822587052
13	28007	10.6	0.92677479839214
13	28638	10.7	3.4628482399211
13	29269	10.8	0.973
13	29900	10.9	8.3979299015131
13	30531	11	0.973
13	31162	11.1	3.7914304154369
13	31793	11.2	1.156048279062
13	32424	11.3	5.57511634154
13	33055	11.4	1.2953029623843
13	33686	11.5	1.752093255521
13	34317	11.6	2.8011359722564
13	34948	11.7	6.7236473200526
13	35579	11.8	1.3392072149385
13	36210	11.9	4.6691815169568
13	36841	12	3.6707958390836
13	37472	12.1	5.0012154645208
13	38103	12.2	0.973
13	38734	12.3	4.47930642734
13	39365	12.4	5.8875620374647
13	39996	12.5	3.7886893471119
13	40627	12.6	1.7244992911897
13	41258	12.7	1.0641333796633
13	41889	12.8	0.973
13	42520	12.9	12.922120496193
13	43151	13	0.973
13	43782	13.1	0.973
13	44413	13.2	5.8839395260577
13	45044	13.3	4.0972794632607
13	45675	13.4	4.7234575907382
13	46306	13.5	2.1770734859342
13	46937	13.6	0.973
13	47568	13.7	3.0843872523493
13	48199	13.8	5.0057300205491
13	48830	13.9	3.2777789127455
13	49461	14	3.2749051987335
13	50092	14.1	0.973
13	50723	14.2	4.1778293761611
13	51354	14.3	3.2542772531741
13	51985	14.4	3.8655057774024
13	52616	14.5	4.9089289132567
13	53247	14.6	0.973
13	53878	14.7	3.2314029664783
13	54509	14.8	2.9276309304995
13	55140	14.9	3.9556657420457
13	55771	15	4.0264028073429
13	56402	15.1	3.8493519243818
13	57033	15.2	0.973
13	57664	15.3	10.237238388685
13	58295	15.4	0.973
13	58926	15.5	0.973
13	59557	15.6	4.7300419967112
13	60188	15.7	4.3328203353714
13	60819	15.8	3.7184873969531
13	61450	15.9	3.0979578525771
13	62081	16	0.6247427898715
13	62712	16.1	5.3990215325751
13	63343	16.2	1.1301712671889
13	63974	16.3	0.7812445981596
13	64605	16.4	5.5707272996713
13	65236	16.5	0.96142494969306
13	65867	16.6	7.8465475517572
13	66498	16.7	0.973
13	67129	16.8	7.1160371947071
13	67760	16.9	1.6132160440623
13	68391	17	4.7606070153979
13	69022	17.1	1.2787370043353
13	69653	17.2	1.4670667304896
13	70284	17.3	7.0907644074574
13	70915	17.4	0.68859988462631
13	71546	17.5	5.0555517059714
13	72177	17.6	0.973
13	72808	17.7	3.7161668224815
13	73439	17.8	4.3722373992519
13	74070	17.9	0.973
13	74701	18	7.3843891389162
13	75332	18.1	2.3289242585039
13	75963	18.2	2.2223530453652
13	76594	18.3	3.0996530674816
13	77225	18.4	4.6699492707364
13	77856	18.5	1.1408527465903
13	78487	18.6	0.56342318617861
13	79118	18.7	8.0454352223571
13	79749	18.8	0.973
13	80380	18.9	2.3719218582664
13	81011	19	1.2890776626687
13	81642	19.1	1.541165004093
13	82273	19.2	4.7495813952847
13	82904	19.3	6.2681406068402
13	83535	19.4	0.84456251455727
13	84166	19.5	0.973
13	84797	19.6	5.9658729922352
13	85428	19.7	0.81496621869707
13	85942	19.8	4.6567052980186
13	86456	19.9	2.3538119611872
13	86970	20	4.9928642699641
13	87484	20.1	1.330625063475
13	87998	20.2	3.3600686245393
13	88512	20.3	1.5960519236743
13	89026	20.4	8.1249504582109
13	89540	20.5	0.9004113060913
13	90054	20.6	0.74545310924157
13	90568	20.7	5.7748710507553
13	91082	20.8	1.5880135303831
13	91596	20.9	3.5163495044939
12	164	1.3	0.2939152377423
12	195	1.4	-0.29417132537365
12	226	1.5	0.082600940136963
12	257	1.6	1.3512697968803
12	288	1.7	-0.54856702131318
12	319	1.8	0.67225110022356
12	350	1.9	-0.53262313848951
12	381	2	1.3537740295548
12	412	2.1	-0.08793639272362
12	476	2.2	-0.34513941860556
12	540	2.3	1.380684158662
12	604	2.4	0.37100718730276
12	668	2.5	-0.50277567810596
12	732	2.6	-0.11677599937247
12	796	2.7	0.82597851937845
12	860	2.8	0.53209955789981
12	924	2.9	-0.46489083373459
12	988	3	-0.81716618445494
12	1052	3.1	1.3108174990044
12	1161	3.2	0.60945936249684
12	1270	3.3	0.17592262782856
12	1379	3.4	-0.22357846064057
12	1488	3.5	0.81029008965167
12	1597	3.6	-1.0024980795029
12	1706	3.7	0.95702979495236
12	1815	3.8	-0.91936695775672
12	1924	3.9	1.0011666360974
12	2033	4	0.077469944398807
12	2142	4.1	0.84290585415257
12	2308	4.2	-0.48608994571655
12	2474	4.3	0.36049476152034
12	2640	4.4	0.13714488315731
12	2806	4.5	-0.62106269955763
12	2972	4.6	0.98765537079942
12	3138	4.7	0.13503927566617
12	3304	4.8	-0.028392823792167
12	3470	4.9	0.2639691575181
12	3636	5	-0.1816215047462
12	3802	5.1	0.2354354289934
12	4037	5.2	-0.29899988546649
12	4272	5.3	1.282780418187
12	4507	5.4	-0.53645995574598
12	4742	5.5	-0.050686342399686
12	4977	5.6	0.14855972142332
12	5212	5.7	-0.014031576986291
12	5447	5.8	-0.11031046804383
12	5682	5.9	0.2851199114847
12	5917	6	1.3796418007981
12	6152	6.1	-0.84537488729794
12	6468	6.2	0.32495083867712
12	6784	6.3	-0.00042156038066565
12	7100	6.4	0.53282393057351
12	7416	6.5	-0.10664229821082
12	7732	6.6	-0.27234955833467
12	8048	6.7	0.11340934525244
12	8364	6.8	0.74520729725528
12	8680	6.9	-0.25595359490165
12	8996	7	0.029754580969339
12	9312	7.1	0.47038047730069
12	9721	7.2	0.40020756891479
12	10130	7.3	-0.9294692778769
12	10539	7.4	0.33683209889855
12	10948	7.5	-0.022906072554356
12	11357	7.6	-0.042076152453099
12	11766	7.7	-0.050581266399909
12	12175	7.8	0.17817169256695
12	12584	7.9	0.69130366763304
12	12993	8	0.55385788981145
12	13402	8.1	0.12782567936483
12	13916	8.2	-1.5090770436838
12	14430	8.3	0.42203739978977
12	14944	8.4	1.375162893834
12	15458	8.5	-0.63962547983941
12	15972	8.6	-0.86778642241114
12	16486	8.7	0.67559955263711
12	17000	8.8	-0.12540617375208
12	17514	8.9	0.47800960194497
12	18028	9	0.58361402884948
12	18542	9.1	-0.48063123781795
12	19173	9.2	0.16211543935601
12	19804	9.3	0.18545905100613
12	20435	9.4	-0.66699069406631
12	21066	9.5	0.68982665723254
12	21697	9.6	-0.47709016706623
12	22328	9.7	0.71070835193847
12	22959	9.8	-0.41375533054929
12	23590	9.9	-0.46318572019338
12	24221	10	0.96397081282522
12	24852	10.1	-0.50917727971733
12	25483	10.2	1.0794987388138
12	26114	10.3	-0.37356824425569
12	26745	10.4	0.025027811270988
12	27376	10.5	0.36280915664481
12	28007	10.6	-0.38921048423035
12	28638	10.7	0.14094363257978
12	29269	10.8	-0.47250720876551
12	29900	10.9	1.1665928576865
12	30531	11	-1.2399101949065
12	31162	11.1	0.21111262843299
12	31793	11.2	-0.34039405065265
12	32424	11.3	0.5832313471387
12	33055	11.4	-0.31163917094187
12	33686	11.5	-0.21544754113457
12	34317	11.6	0.0045984912484442
12	34948	11.7	0.82130077454718
12	35579	11.8	-0.30298083254827
12	36210	11.9	0.39165365872286
12	36841	12	0.18241438407376
12	37472	12.1	0.45740101812704
12	38103	12.2	-1.2780722167866
12	38734	12.3	0.35344958149494
12	39365	12.4	0.64371539362423
12	39996	12.5	0.20535532807671
12	40627	12.6	-0.22395760579062
12	41258	12.7	-0.36107837309117
12	41889	12.8	-0.63993091522558
12	42520	12.9	2.095064227793
12	43151	13	-0.58659865575837
12	43782	13.1	-0.90079916020088
12	44413	13.2	0.64146398127338
12	45044	13.3	0.26825053001705
12	45675	13.4	0.39634418894387
12	46306	13.5	-0.13168164021291
12	46937	13.6	-0.99620780824004
12	47568	13.7	0.060069889398413
12	48199	13.8	0.45831992685681
12	48830	13.9	0.09830204030866
12	49461	14	0.097335672612502
12	50092	14.1	-0.86465863909037
12	50723	14.2	0.28781107615803
12	51354	14.3	0.094862468169517
12	51985	14.4	0.22128722435475
12	52616	14.5	0.43613567836509
12	53247	14.6	-0.72274802855116
12	53878	14.7	0.090002237054527
12	54509	14.8	0.026602660798041
12	55140	14.9	0.2397448846504
12	55771	15	0.25330967132682
12	56402	15.1	0.21556270798119
12	57033	15.2	-1.1208193904808
12	57664	15.3	1.5373669277846
12	58295	15.4	-0.78527356625131
12	58926	15.5	-0.64252288062139
12	59557	15.6	0.40166222122885
12	60188	15.7	0.31737772193985
12	60819	15.8	0.18882858736674
12	61450	15.9	0.059699869586751
12	62081	16	-0.45348800528938
12	62712	16.1	0.53709810928396
12	63343	16.2	-0.3485709357178
12	63974	16.3	-0.42063608964114
12	64605	16.4	0.57394868239527
12	65236	16.5	-0.38334773970973
12	65867	16.6	1.0412631757708
12	66498	16.7	-1.2564766228017
12	67129	16.8	0.89278052676598
12	67760	16.9	-0.24852485740617
12	68391	17	0.40321428911124
12	69022	17.1	-0.31815962702161
12	69653	17.2	-0.2785200540303
12	70284	17.3	0.88412025150806
12	70915	17.4	-0.44089151657676
12	71546	17.5	0.46263037981486
12	72177	17.6	-1.0731475334672
12	72808	17.7	0.18910147454484
12	73439	17.8	0.32392518861364
12	74070	17.9	-0.72572283187085
12	74701	18	0.9474537767516
12	75332	18.1	-0.10059821884273
12	75963	18.2	-0.1223797376926
12	76594	18.3	0.059531514697149
12	77225	18.4	0.38342194288443
12	77856	18.5	-0.3470467855351
12	78487	18.6	-0.46641329312688
12	79118	18.7	1.0802944517901
12	79749	18.8	-0.49182108164096
12	80380	18.9	-0.091688558298308
12	81011	19	-0.31580001532284
12	81642	19.1	-0.2628972893455
12	82273	19.2	0.40253213494921
12	82904	19.3	0.71295816660122
12	83535	19.4	-0.40872584415325
12	84166	19.5	-0.55471166247816
12	84797	19.6	0.65245381763471
12	85428	19.7	-0.41447355915608
12	85942	19.8	0.38132409851162
12	86456	19.9	-0.09571944524069
12	86970	20	0.44903816622682
12	87484	20.1	-0.30814215054271
12	87998	20.2	0.11196707822382
12	88512	20.3	-0.25285322684795
12	89026	20.4	1.0914487423375
12	89540	20.5	-0.39802099999505
12	90054	20.6	-0.42954410614911
12	90568	20.7	0.60815422835294
12	91082	20.8	-0.25577128264121
12	91596	20.9	0.14230102885048
11	133	1.2	18.582224578041
11	164	1.3	18.611616101815
11	195	1.4	18.582198969278
11	226	1.5	18.590459063292
11	257	1.6	18.72558604298
11	288	1.7	18.670729340848
11	319	1.8	18.737954450871
11	350	1.9	18.684692137022
11	381	2	18.820069539977
11	412	2.1	18.811275900705
11	476	2.2	18.776761958844
11	540	2.3	18.914830374711
11	604	2.4	18.951931093441
11	668	2.5	18.90165352563
11	732	2.6	18.889975925693
11	796	2.7	18.972573777631
11	860	2.8	19.025783733421
11	924	2.9	18.979294650047
11	988	3	18.897578031602
11	1052	3.1	19.028659781502
11	1161	3.2	19.089605717752
11	1270	3.3	19.107197980535
11	1379	3.4	19.084840134471
11	1488	3.5	19.165869143436
11	1597	3.6	19.065619335486
11	1706	3.7	19.161322314981
11	1815	3.8	19.069385619205
11	1924	3.9	19.169502282815
11	2033	4	19.177249277255
11	2142	4.1	19.26153986267
11	2308	4.2	19.212930868099
11	2474	4.3	19.248980344251
11	2640	4.4	19.262694832566
11	2806	4.5	19.200588562611
11	2972	4.6	19.29935409969
11	3138	4.7	19.312858027257
11	3304	4.8	19.310018744878
11	3470	4.9	19.33641566063
11	3636	5	19.318253510155
11	3802	5.1	19.341797053054
11	4037	5.2	19.311897064508
11	4272	5.3	19.440175106326
11	4507	5.4	19.386529110752
11	4742	5.5	19.381460476512
11	4977	5.6	19.396316448654
11	5212	5.7	19.394913290956
11	5447	5.8	19.383882244151
11	5682	5.9	19.4123942353
11	5917	6	19.550358415379
11	6152	6.1	19.46582092665
11	6468	6.2	19.498316010517
11	6784	6.3	19.498273854479
11	7100	6.4	19.551556247537
11	7416	6.5	19.540892017716
11	7732	6.6	19.513657061882
11	8048	6.7	19.524997996407
11	8364	6.8	19.599518726133
11	8680	6.9	19.573923366643
11	8996	7	19.57689882474
11	9312	7.1	19.62393687247
11	9721	7.2	19.663957629361
11	10130	7.3	19.571010701574
11	10539	7.4	19.604693911463
11	10948	7.5	19.602403304208
11	11357	7.6	19.598195688963
11	11766	7.7	19.593137562323
11	12175	7.8	19.610954731579
11	12584	7.9	19.680085098343
11	12993	8	19.735470887324
11	13402	8.1	19.74825345526
11	13916	8.2	19.597345750892
11	14430	8.3	19.639549490871
11	14944	8.4	19.777065780254
11	15458	8.5	19.71310323227
11	15972	8.6	19.626324590029
11	16486	8.7	19.693884545293
11	17000	8.8	19.681343927918
11	17514	8.9	19.729144888112
11	18028	9	19.787506290997
11	18542	9.1	19.739443167215
11	19173	9.2	19.755654711151
11	19804	9.3	19.774200616252
11	20435	9.4	19.707501546845
11	21066	9.5	19.776484212568
11	21697	9.6	19.728775195862
11	22328	9.7	19.799846031055
11	22959	9.8	19.758470498001
11	23590	9.9	19.712151925981
11	24221	10	19.808549007264
11	24852	10.1	19.757631279292
11	25483	10.2	19.865581153173
11	26114	10.3	19.828224328748
11	26745	10.4	19.830727109875
11	27376	10.5	19.867008025539
11	28007	10.6	19.828086977116
11	28638	10.7	19.842181340374
11	29269	10.8	19.794930619498
11	29900	10.9	19.911589905266
11	30531	11	19.787598885776
11	31162	11.1	19.808710148619
11	31793	11.2	19.774670743554
11	32424	11.3	19.832993878268
11	33055	11.4	19.801829961173
11	33686	11.5	19.78028520706
11	34317	11.6	19.780745056185
11	34948	11.7	19.86287513364
11	35579	11.8	19.832577050385
11	36210	11.9	19.871742416257
11	36841	12	19.889983854664
11	37472	12.1	19.935723956477
11	38103	12.2	19.807916734798
11	38734	12.3	19.843261692948
11	39365	12.4	19.90763323231
11	39996	12.5	19.928168765118
11	40627	12.6	19.905773004539
11	41258	12.7	19.86966516723
11	41889	12.8	19.805672075707
11	42520	12.9	20.015178498487
11	43151	13	19.956518632911
11	43782	13.1	19.866438716891
11	44413	13.2	19.930585115018
11	45044	13.3	19.95741016802
11	45675	13.4	19.997044586914
11	46306	13.5	19.983876422893
11	46937	13.6	19.884255642069
11	47568	13.7	19.890262631009
11	48199	13.8	19.936094623694
11	48830	13.9	19.945924827725
11	49461	14	19.955658394986
11	50092	14.1	19.869192531077
11	50723	14.2	19.897973638693
11	51354	14.3	19.90745988551
11	51985	14.4	19.929588607946
11	52616	14.5	19.973202175782
11	53247	14.6	19.900927372927
11	53878	14.7	19.909927596632
11	54509	14.8	19.912587862712
11	55140	14.9	19.936562351177
11	55771	15	19.96189331831
11	56402	15.1	19.983449589108
11	57033	15.2	19.87136765006
11	57664	15.3	20.025104342839
11	58295	15.4	19.946576986213
11	58926	15.5	19.882324698151
11	59557	15.6	19.922490920274
11	60188	15.7	19.954228692468
11	60819	15.8	19.973111551205
11	61450	15.9	19.979081538163
11	62081	16	19.933732737635
11	62712	16.1	19.987442548563
11	63343	16.2	19.952585454991
11	63974	16.3	19.910521846027
11	64605	16.4	19.967916714267
11	65236	16.5	19.929581940296
11	65867	16.6	20.033708257873
11	66498	16.7	19.908060595592
11	67129	16.8	19.997338648269
11	67760	16.9	19.972486162528
11	68391	17	20.01280759144
11	69022	17.1	19.980991628737
11	69653	17.2	19.953139623334
11	70284	17.3	20.041551648485
11	70915	17.4	19.997462496828
11	71546	17.5	20.043725534809
11	72177	17.6	19.936410781462
11	72808	17.7	19.955320928917
11	73439	17.8	19.987713447778
11	74070	17.9	19.915141164591
11	74701	18	20.009886542266
11	75332	18.1	19.999826720382
11	75963	18.2	19.987588746613
11	76594	18.3	19.993541898082
11	77225	18.4	20.031884092371
11	77856	18.5	19.997179413817
11	78487	18.6	19.950538084505
11	79118	18.7	20.058567529684
11	79749	18.8	20.00938542152
11	80380	18.9	20.00021656569
11	81011	19	19.968636564157
11	81642	19.1	19.942346835223
11	82273	19.2	19.982600048718
11	82904	19.3	20.053895865378
11	83535	19.4	20.013023280963
11	84166	19.5	19.957552114715
11	84797	19.6	20.022797496478
11	85428	19.7	19.981350140563
11	85942	19.8	20.019482550414
11	86456	19.9	20.00991060589
11	86970	20	20.054814422512
11	87484	20.1	20.024000207458
11	87998	20.2	20.035196915281
11	88512	20.3	20.009911592596
11	89026	20.4	20.119056466829
11	89540	20.5	20.07925436683
11	90054	20.6	20.036299956215
11	90568	20.7	20.09711537905
11	91082	20.8	20.071538250786
11	91596	20.9	20.085768353671
10	102	1.1	416.30025728988
10	133	1.2	416.30025728988
10	164	1.3	414.44212857753
10	195	1.4	412.58106086109
10	226	1.5	410.72293470949
10	257	1.6	408.86398259016
10	288	1.7	406.99151845456
10	319	1.8	405.12453971243
10	350	1.9	403.25083879844
10	381	2	401.38246384714
10	412	2.1	399.5005518385
10	476	2.2	397.61951914943
10	540	2.3	395.74193768042
10	604	2.4	393.85055006637
10	668	2.5	391.95545256762
10	732	2.6	390.065382572
10	796	2.7	388.17648027746
10	860	2.8	386.27931861443
10	924	2.9	384.37683622426
10	988	3	382.47900250789
10	1052	3.1	380.58934004111
10	1161	3.2	378.68657006064
10	1270	3.3	376.77770579401
10	1379	3.4	374.86708238985
10	1488	3.5	372.95869465751
10	1597	3.6	371.04220443305
10	1706	3.7	369.13573868363
10	1815	3.8	367.21970311908
10	1924	3.9	365.3128607603
10	2033	4	363.39600724023
10	2142	4.1	361.4783790598
10	2308	4.2	359.55232224607
10	2474	4.3	357.63112608657
10	2640	4.4	355.70632516132
10	2806	4.5	353.78015285642
10	2972	4.6	351.8601908652
10	3138	4.7	349.93035281854
10	3304	4.8	347.99916444724
10	3470	4.9	346.06825998986
10	3636	5	344.13471597407
10	3802	5.1	342.20298808171
10	4037	5.2	340.26890595383
10	4272	5.3	338.33781367396
10	4507	5.4	336.39389423706
10	4742	5.5	334.45533912907
10	4977	5.6	332.51729085895
10	5212	5.7	330.57775706655
10	5447	5.8	328.63836358284
10	5682	5.9	326.70007314817
10	5917	6	324.75893165822
10	6152	6.1	322.80399444628
10	6468	6.2	320.85751055672
10	6784	6.3	318.90777732272
10	7100	6.4	316.95804830411
10	7416	6.5	315.00299131499
10	7732	6.6	313.04900069506
10	8048	6.7	311.09773343331
10	8364	6.8	309.14533213532
10	8680	6.9	307.18547914031
10	8996	7	305.22818555213
10	9312	7.1	303.27059443314
10	9721	7.2	301.30829974669
10	10130	7.3	299.34200318644
10	10539	7.4	297.38500085007
10	10948	7.5	295.42463036264
10	11357	7.6	293.46448892437
10	11766	7.7	291.50476822641
10	12175	7.8	289.54555331559
10	12584	7.9	287.58455677773
10	12993	8	285.61664755195
10	13402	8.1	283.64320002668
10	13916	8.2	281.66847430911
10	14430	8.3	279.70883860067
10	14944	8.4	277.74498273113
10	15458	8.5	275.76737592642
10	15972	8.6	273.79616505382
10	16486	8.7	271.83363160765
10	17000	8.8	269.86434250679
10	17514	8.9	267.89630740441
10	18028	9	265.92349244715
10	18542	9.1	263.94484164403
10	19173	9.2	261.97099691082
10	19804	9.3	259.995531105
10	20435	9.4	258.01821080223
10	21066	9.5	256.04756006992
10	21697	9.6	254.07001141904
10	22328	9.7	252.09723342914
10	22959	9.8	250.11734871427
10	23590	9.9	248.14160134397
10	24221	10	246.1704855972
10	24852	10.1	244.18973062861
10	25483	10.2	242.21406717595
10	26114	10.3	240.2276092805
10	26745	10.4	238.24488687902
10	27376	10.5	236.26191421206
10	28007	10.6	234.27531363657
10	28638	10.7	232.29260496957
10	29269	10.8	230.30848693734
10	29900	10.9	228.32909373883
10	30531	11	226.33803520028
10	31162	11.1	224.35937513815
10	31793	11.2	222.37860405624
10	32424	11.3	220.40123674311
10	33055	11.4	218.41803741075
10	33686	11.5	216.43795431288
10	34317	11.6	214.46002558172
10	34948	11.7	212.48205086798
10	35579	11.8	210.49586356082
10	36210	11.9	208.51270590915
10	36841	12	206.52563191847
10	37472	12.1	204.53673387597
10	38103	12.2	202.54326205405
10	38734	12.3	200.56257030952
10	39365	12.4	198.57834424749
10	39996	12.5	196.58768135627
10	40627	12.6	194.59496501537
10	41258	12.7	192.60448813754
10	41889	12.8	190.61762186128
10	42520	12.9	188.63715457134
10	43151	13	186.63573769606
10	43782	13.1	184.6401865114
10	44413	13.2	182.6536428639
10	45044	13.3	180.6606849002
10	45675	13.4	178.66504456653
10	46306	13.5	176.66544099092
10	46937	13.6	174.66715416528
10	47568	13.7	172.67882891515
10	48199	13.8	170.68990299642
10	48830	13.9	168.69639410965
10	49461	14	166.70190225207
10	50092	14.1	164.70643708686
10	50723	14.2	162.71961807183
10	51354	14.3	160.72992109124
10	51985	14.4	158.73927553383
10	52616	14.5	156.74641721581
10	53247	14.6	154.74919776103
10	53878	14.7	152.75920542192
10	54509	14.8	150.76831310584
10	55140	14.9	148.77715477658
10	55771	15	146.78359911941
10	56402	15.1	144.78751049333
10	57033	15.2	142.78926634892
10	57664	15.3	140.80222983297
10	58295	15.4	138.79982042332
10	58926	15.5	136.80526335318
10	59557	15.6	134.8171311877
10	60188	15.7	132.82498260264
10	60819	15.8	130.82966040047
10	61450	15.9	128.83245000769
10	62081	16	126.83464264634
10	62712	16.1	124.84136993625
10	63343	16.2	122.84272651604
10	63974	16.3	120.84756862933
10	64605	16.4	118.85661689131
10	65236	16.5	116.85992595602
10	65867	16.6	114.86706830473
10	66498	16.7	112.86379854699
10	67129	16.8	110.8730929216
10	67760	16.9	108.87345994134
10	68391	17	106.87631208427
10	69022	17.1	104.87513228773
10	69653	17.2	102.87713392695
10	70284	17.3	100.88192062621
10	70915	17.4	98.877866568975
10	71546	17.5	96.878221204483
10	72177	17.6	94.873949769585
10	72808	17.7	92.88040926863
10	73439	17.8	90.884977848329
10	74070	17.9	88.886307339559
10	74701	18	86.894893692988
10	75332	18.1	84.89400598663
10	75963	18.2	82.89412421171
10	76594	18.3	80.895466172427
10	77225	18.4	78.89621284803
10	77856	18.5	76.893125497637
10	78487	18.6	74.893508440018
10	79118	18.7	72.898555280029
10	79749	18.8	70.892799720521
10	80380	18.9	68.891962123709
10	81011	19	66.892041366225
10	81642	19.1	64.895278449576
10	82273	19.2	62.901144373191
10	82904	19.3	60.902985178531
10	83535	19.4	58.897696761884
10	84166	19.5	56.896495397481
10	84797	19.6	54.900840869857
10	85428	19.7	52.898662133212
10	85942	19.8	50.900627923061
10	86456	19.9	48.898780664299
10	86970	20	46.897890551701
10	87484	20.1	44.892510283975
10	87998	20.2	42.8902112823
10	88512	20.3	40.886792666329
10	89026	20.4	38.885902455064
10	89540	20.5	36.874098307001
10	90054	20.6	34.866274168141
10	90568	20.7	32.862745253641
10	91082	20.8	30.853135103665
10	91596	20.9	28.846082537482
9	102	1.1	23.397598627787
9	133	1.2	23.397598627787
9	164	1.3	23.414941537418
9	195	1.4	23.432311878346
9	226	1.5	23.449654764076
9	257	1.6	23.467005359004
9	288	1.7	23.484482068811
9	319	1.8	23.501907580506
9	350	1.9	23.519395833827
9	381	2	23.536834377089
9	412	2.1	23.554399268951
9	476	2.2	23.571955953653
9	540	2.3	23.589480426271
9	604	2.4	23.607133759029
9	668	2.5	23.624821718127
9	732	2.6	23.642462752847
9	796	2.7	23.660092888788
9	860	2.8	23.677800113835
9	924	2.9	23.695557000076
9	988	3	23.713270497757
9	1052	3.1	23.730907728792
9	1161	3.2	23.748667299268
9	1270	3.3	23.766483750977
9	1379	3.4	23.784316621658
9	1488	3.5	23.802128625617
9	1597	3.6	23.820016254472
9	1706	3.7	23.837810319536
9	1815	3.8	23.855693704806
9	1924	3.9	23.873491284968
9	2033	4	23.891382304655
9	2142	4.1	23.909280554661
9	2308	4.2	23.927257473613
9	2474	4.3	23.945189025477
9	2640	4.4	23.96315422255
9	2806	4.5	23.981132219442
9	2972	4.6	23.999052252154
9	3138	4.7	24.017064463376
9	3304	4.8	24.0350892779
9	3470	4.9	24.053111442504
9	3636	5	24.071158243519
9	3802	5.1	24.089188093683
9	4037	5.2	24.107239917186
9	4272	5.3	24.125263834838
9	4507	5.4	24.14340747521
9	4742	5.5	24.161501047431
9	4977	5.6	24.179589889062
9	5212	5.7	24.197692595867
9	5447	5.8	24.215793993097
9	5682	5.9	24.233885094979
9	5917	6	24.252002807287
9	6152	6.1	24.27024928245
9	6468	6.2	24.288416858231
9	6784	6.3	24.306614761884
9	7100	6.4	24.324812626191
9	7416	6.5	24.343060219299
9	7732	6.6	24.361297859412
9	8048	6.7	24.379510080967
9	8364	6.8	24.397732887088
9	8680	6.9	24.416025243885
9	8996	7	24.434293712369
9	9312	7.1	24.452564957866
9	9721	7.2	24.470880104276
9	10130	7.3	24.489232602316
9	10539	7.4	24.507498352391
9	10948	7.5	24.525795539222
9	11357	7.6	24.544090588214
9	11766	7.7	24.562381710212
9	12175	7.8	24.580668111428
9	12584	7.9	24.598971141523
9	12993	8	24.617338691433
9	13402	8.1	24.635757933256
9	13916	8.2	24.654189105132
9	14430	8.3	24.672479433877
9	14944	8.4	24.690809151644
9	15458	8.5	24.709267214248
9	15972	8.6	24.727665580195
9	16486	8.7	24.745982955077
9	17000	8.8	24.7643633841
9	17514	8.9	24.782732108884
9	18028	9	24.801145446611
9	18542	9.1	24.819613253411
9	19173	9.2	24.838036202588
9	19804	9.3	24.856474282104
9	20435	9.4	24.874929670631
9	21066	9.5	24.893322808489
9	21697	9.6	24.911780328312
9	22328	9.7	24.930193321003
9	22959	9.8	24.948672644562
9	23590	9.9	24.967113352069
9	24221	10	24.985510830156
9	24852	10.1	25.003998276258
9	25483	10.2	25.022438200517
9	26114	10.3	25.040978875087
9	26745	10.4	25.059484684293
9	27376	10.5	25.077992829361
9	28007	10.6	25.096534835641
9	28638	10.7	25.115040516656
9	29269	10.8	25.13355935203
9	29900	10.9	25.152034088003
9	30531	11	25.170617702838
9	31162	11.1	25.189085596057
9	31793	11.2	25.207573192553
9	32424	11.3	25.226029019854
9	33055	11.4	25.244539280511
9	33686	11.5	25.263020455684
9	34317	11.6	25.281481523
9	34948	11.7	25.299943019496
9	35579	11.8	25.318481168521
9	36210	11.9	25.33699104015
9	36841	12	25.355537465067
9	37472	12.1	25.374100914835
9	38103	12.2	25.392707054135
9	38734	12.3	25.411193910133
9	39365	12.4	25.429713753807
9	39996	12.5	25.448293675853
9	40627	12.6	25.466892763844
9	41258	12.7	25.485470949728
9	41889	12.8	25.504015435935
9	42520	12.9	25.522500196978
9	43151	13	25.541180491712
9	43782	13.1	25.559806038817
9	44413	13.2	25.578347513757
9	45044	13.3	25.596948856943
9	45675	13.4	25.615575236123
9	46306	13.5	25.634238606361
9	46937	13.6	25.652889686667
9	47568	13.7	25.671447790258
9	48199	13.8	25.69001150021
9	48830	13.9	25.708617985456
9	49461	14	25.727233645294
9	50092	14.1	25.745858389533
9	50723	14.2	25.764402434625
9	51354	14.3	25.782973341311
9	51985	14.4	25.801553101571
9	52616	14.5	25.82015351471
9	53247	14.6	25.838794632673
9	53878	14.7	25.857368296097
9	54509	14.8	25.875950359488
9	55140	14.9	25.894534905723
9	55771	15	25.913141827502
9	56402	15.1	25.931772390835
9	57033	15.2	25.950423072774
9	57664	15.3	25.968969147919
9	58295	15.4	25.987658706508
9	58926	15.5	26.006274975009
9	59557	15.6	26.024831276438
9	60188	15.7	26.04342506526
9	60819	15.8	26.062048475148
9	61450	15.9	26.08068950853
9	62081	16	26.099336113739
9	62712	16.1	26.117940394622
9	63343	16.2	26.136594803215
9	63974	16.3	26.15521667946
9	64605	16.4	26.173799297468
9	65236	16.5	26.192435482475
9	65867	16.6	26.211035889391
9	66498	16.7	26.229733478069
9	67129	16.8	26.248313798976
9	67760	16.9	26.266977443663
9	68391	17	26.285617893366
9	69022	17.1	26.304295975318
9	69653	17.2	26.322944363227
9	70284	17.3	26.34156675668
9	70915	17.4	26.360271665644
9	71546	17.5	26.378935425921
9	72177	17.6	26.397642363787
9	72808	17.7	26.416249144105
9	73439	17.8	26.434873573385
9	74070	17.9	26.453528234811
9	74701	18	26.472115164058
9	75332	18.1	26.490790519776
9	75963	18.2	26.509456486597
9	76594	18.3	26.528111031638
9	77225	18.4	26.546771132794
9	77856	18.5	26.565467018967
9	78487	18.6	26.584130515039
9	79118	18.7	26.60275048046
9	79749	18.8	26.621471270456
9	80380	18.9	26.640146158474
9	81011	19	26.65881248914
9	81642	19.1	26.677449345988
9	82273	19.2	26.696061666463
9	82904	19.3	26.714711555521
9	83535	19.4	26.733427985422
9	84166	19.5	26.752106268678
9	84797	19.6	26.770732780338
9	85428	19.7	26.789420185932
9	85942	19.8	26.808068908442
9	86456	19.9	26.826753220176
9	86970	20	26.845428598352
9	87484	20.1	26.864145885549
9	87998	20.2	26.882834413641
9	88512	20.3	26.901533391692
9	89026	20.4	26.920208770789
9	89540	20.5	26.938986015499
9	90054	20.6	26.957726112653
9	90568	20.7	26.976426120179
9	91082	20.8	26.995182887131
9	91596	20.9	27.013915782784
20	540	2.3	6.1369687913098
20	604	2.4	8.446659360459
20	668	2.5	6.0826769407627
20	732	2.6	1.5406808365842
20	796	2.7	3.0512515163476
20	860	2.8	2.809143006957
20	924	2.9	9.0603741812105
20	988	3	3.1793027830352
20	1052	3.1	0.973
20	1161	3.2	6.2312438079163
20	1270	3.3	8.4584369090222
20	1379	3.4	4.566794324123
20	1488	3.5	0.973
20	1597	3.6	6.891413288926
20	1706	3.7	3.021832544556
20	1815	3.8	2.8540886276434
20	1924	3.9	1.2924495624858
20	2033	4	8.070576238536
20	2142	4.1	2.7804248150172
20	2308	4.2	7.220605703596
20	2474	4.3	1.6139288727659
20	2640	4.4	5.8507503147246
20	2806	4.5	2.6034018820663
20	2972	4.6	4.6122939930505
20	3138	4.7	5.6473855151031
20	3304	4.8	2.4573270697053
20	3470	4.9	0.75794273166414
20	3636	5	5.3774678661199
20	3802	5.1	7.3396014814638
20	4037	5.2	2.5610583859345
20	4272	5.3	1.3853929989426
20	4507	5.4	7.3720952857818
20	4742	5.5	3.4157585837349
20	4977	5.6	2.3579904521147
20	5212	5.7	3.8378453593502
20	5447	5.8	3.2440019843957
20	5682	5.9	0.973
20	5917	6	7.8726206389815
20	6152	6.1	6.6792877257294
20	6468	6.2	1.766379105821
20	6784	6.3	1.0152304720532
20	7100	6.4	4.4035923595469
20	7416	6.5	6.8484842178148
20	7732	6.6	3.2896762671416
20	8048	6.7	1.3653004522897
20	8364	6.8	6.620671302467
20	8680	6.9	5.5547778592715
20	8996	7	0.973
20	9312	7.1	1.6576538092434
20	9721	7.2	5.5729209524019
20	10130	7.3	8.094309903904
20	10539	7.4	0.973
20	10948	7.5	2.1617830036329
20	11357	7.6	5.0722200232201
20	11766	7.7	5.220559736898
20	12175	7.8	0.973
20	12584	7.9	8.7497793578418
20	12993	8	2.2060480626777
20	13402	8.1	4.8440806357396
20	13916	8.2	7.9164367082316
20	14430	8.3	0.973
20	14944	8.4	7.2720656733683
20	15458	8.5	3.9532584805887
20	15972	8.6	4.938805006155
20	16486	8.7	0.973
20	17000	8.8	2.7557812347244
20	17514	8.9	4.7291475448435
20	18028	9	4.6551087525406
20	18542	9.1	4.906130106129
20	19173	9.2	1.1020071265447
20	19804	9.3	7.6151996514507
20	20435	9.4	0.973
20	21066	9.5	4.7922139041048
20	21697	9.6	3.3026225715716
20	22328	9.7	4.0757812056356
20	22959	9.8	6.3661455397585
20	23590	9.9	0.973
20	24221	10	0.973
20	24852	10.1	9.9848236296388
20	25483	10.2	0.973
20	26114	10.3	7.4791171278118
20	26745	10.4	0.973
20	27376	10.5	3.2499881570798
20	28007	10.6	5.4470578832641
20	28638	10.7	6.3207620089049
20	29269	10.8	0.99784412715582
20	29900	10.9	0.973
20	30531	11	9.4563682861796
20	31162	11.1	0.973
20	31793	11.2	2.1415569027752
20	32424	11.3	4.5023716023209
20	33055	11.4	0.973
20	33686	11.5	1.5605851506293
20	34317	11.6	2.1064691636771
20	34948	11.7	3.57994473451
20	35579	11.8	10.002530818846
20	36210	11.9	0.973
20	36841	12	4.7426225977111
20	37472	12.1	7.1730919130322
20	38103	12.2	0.973
20	38734	12.3	1.2456999524922
20	39365	12.4	3.8626396297184
20	39996	12.5	3.1684666932576
20	40627	12.6	6.5268364122644
20	41258	12.7	2.1325796192207
20	41889	12.8	0.973
20	42520	12.9	1.478912011597
20	43151	13	9.0156064226967
20	43782	13.1	1.387732572806
20	44413	13.2	3.6568916076458
20	45044	13.3	5.3271904349414
20	45675	13.4	0.973
20	46306	13.5	5.9529897020334
20	46937	13.6	3.8888993624064
20	47568	13.7	0.973
20	48199	13.8	2.7065434570846
20	48830	13.9	5.6246042797819
20	49461	14	4.8934996529571
20	50092	14.1	3.9201714311264
20	50723	14.2	0.973
20	51354	14.3	0.67093807946949
20	51985	14.4	8.5195953605902
20	52616	14.5	1.0899907842211
20	53247	14.6	4.2202546866122
20	53878	14.7	3.3900019000403
20	54509	14.8	0.973
20	55140	14.9	3.5768476394504
20	55771	15	7.9548002288769
20	56402	15.1	0.69014296210948
20	57033	15.2	5.4258484577412
20	57664	15.3	0.973
20	58295	15.4	10.430250908385
20	58926	15.5	1.091115184458
20	59557	15.6	0.973
20	60188	15.7	3.5680669531724
20	60819	15.8	3.3318839288655
20	61450	15.9	7.6054719933113
20	62081	16	0.973
20	62712	16.1	6.0499578218231
20	63343	16.2	2.9206929771027
20	63974	16.3	1.6398123414686
20	64605	16.4	0.973
20	65236	16.5	10.285968561929
20	65867	16.6	0.973
20	66498	16.7	8.1956288910628
20	67129	16.8	0.973
20	67760	16.9	6.5404149115183
20	68391	17	5.7287128697311
20	69022	17.1	3.9484509329142
20	69653	17.2	0.973
20	70284	17.3	3.723797693555
20	70915	17.4	2.9513191638281
20	71546	17.5	1.9892817793815
20	72177	17.6	3.7240492068014
20	72808	17.7	1.3250770141225
20	73439	17.8	2.3258403705979
20	74070	17.9	4.6590129966395
20	74701	18	1.6823808400767
20	75332	18.1	7.0109550873701
20	75963	18.2	0.973
20	76594	18.3	0.973
20	77225	18.4	4.8464049745647
20	77856	18.5	8.716242805477
20	78487	18.6	0.973
20	79118	18.7	4.7424728853422
20	79749	18.8	4.5078941385859
20	80380	18.9	3.8431186714617
20	81011	19	2.3707482663297
20	81642	19.1	3.1045704845513
20	82273	19.2	1.5912551922091
20	82904	19.3	0.90274582455408
20	83535	19.4	4.5638082848192
20	84166	19.5	0.58466183662985
20	84797	19.6	4.1315847365745
20	85428	19.7	3.7175215184123
20	85942	19.8	1.9937359881346
20	86456	19.9	3.2310028265581
20	86970	20	3.4728279009939
20	87484	20.1	8.0455187531706
20	87998	20.2	0.973
20	88512	20.3	2.1975957129883
20	89026	20.4	2.6194808113946
20	89540	20.5	11.06020608245
20	90054	20.6	0.973
20	90568	20.7	3.6805810301328
20	91082	20.8	3.4620585476312
20	91596	20.9	1.6115864682427
20	92110	21	3.8569989593785
20	92519	21.1	7.2242969597288
20	92928	21.2	1.0517433530367
20	93337	21.3	3.7854736523378
20	93746	21.4	1.3055837448793
20	94155	21.5	4.0365339499819
20	94564	21.6	0.973
20	94973	21.7	2.7889253661148
20	95382	21.8	7.5571736865881
20	95791	21.9	3.4135553305307
20	96200	22	1.5350948409981
20	96609	22.1	1.3861214717557
20	97018	22.2	0.973
20	97427	22.3	5.4455046670113
19	540	2.3	0.89514076465374
19	604	2.4	1.4343237769857
19	668	2.5	0.86329519715193
19	732	2.6	-0.21459861342063
19	796	2.7	0.14389135245239
19	860	2.8	0.086075516832551
19	924	2.9	1.5513470046897
19	988	3	0.16685131486089
19	1052	3.1	-0.74453718176148
19	1161	3.2	0.88315856248929
19	1270	3.3	1.3909324598082
19	1379	3.4	0.48112926618018
19	1488	3.5	-0.41861028638255
19	1597	3.6	1.0161359757785
19	1706	3.7	0.11927550761467
19	1815	3.8	0.080152268619855
19	1924	3.9	-0.28075269899354
19	2033	4	1.2769541824719
19	2142	4.1	0.059389310657814
19	2308	4.2	1.0710331193998
19	2474	4.3	-0.21069620896615
19	2640	4.4	0.75377759782018
19	2806	4.5	0.013334109983312
19	2972	4.6	0.46862538475093
19	3138	4.7	0.69908656886685
19	3304	4.8	-0.023489311685729
19	3470	4.9	-0.40810814944614
19	3636	5	0.63657319549556
19	3802	5.1	1.0708670901931
19	4037	5.2	-0.0041214950847035
19	4272	5.3	-0.2681410984302
19	4507	5.4	1.0709711890577
19	4742	5.5	0.18400016016024
19	4977	5.6	-0.052544980702933
19	5212	5.7	0.27739229163927
19	5447	5.8	0.14409260306895
19	5682	5.9	-0.58881243442624
19	5917	6	1.1722316860508
19	6152	6.1	0.89931955823289
19	6468	6.2	-0.18876494494734
19	6784	6.3	-0.35488846611912
19	7100	6.4	0.39590557269275
19	7416	6.5	0.93038952747886
19	7732	6.6	0.14460472937554
19	8048	6.7	-0.27917252745628
19	8364	6.8	0.8742931270988
19	8680	6.9	0.63583782593529
19	8996	7	-0.52994572208693
19	9312	7.1	-0.21621468066463
19	9721	7.2	0.64051067440438
19	10130	7.3	1.1818759952943
19	10539	7.4	-1.0586635373496
19	10948	7.5	-0.10710940118429
19	11357	7.6	0.52750201553323
19	11766	7.7	0.55648254514701
19	12175	7.8	-0.88561275728676
19	12584	7.9	1.3210361566366
19	12993	8	-0.10126102701314
19	13402	8.1	0.46985389723748
19	13916	8.2	1.1261782078846
19	14430	8.3	-1.7272098975909
19	14944	8.4	0.99335432387452
19	15458	8.5	0.27344918424671
19	15972	8.6	0.48375257586304
19	16486	8.7	-0.8975987008613
19	17000	8.8	0.015851742157125
19	17514	8.9	0.44097563962513
19	18028	9	0.42266388943538
19	18542	9.1	0.47409597332358
19	19173	9.2	-0.34392900062663
19	19804	9.3	1.0508448536445
19	20435	9.4	-0.86459970961776
19	21066	9.5	0.44796441771453
19	21697	9.6	0.12743269196307
19	22328	9.7	0.29203922192568
19	22959	9.8	0.7773843691557
19	23590	9.9	-0.54577016263906
19	24221	10	-1.1810657982642
19	24852	10.1	1.5520202373484
19	25483	10.2	-0.53931433852767
19	26114	10.3	1.0124992040108
19	26745	10.4	-0.71536116541225
19	27376	10.5	0.11318227859839
19	28007	10.6	0.57941603972989
19	28638	10.7	0.76024741562275
19	29269	10.8	-0.36978117204452
19	29900	10.9	-0.53092149531
19	30531	11	1.4207341393175
19	31162	11.1	-0.96874660982689
19	31793	11.2	-0.12587010188859
19	32424	11.3	0.37507393789429
19	33055	11.4	-0.48063906903579
19	33686	11.5	-0.24892303490738
19	34317	11.6	-0.13208712439997
19	34948	11.7	0.18181006489343
19	35579	11.8	1.5349198048197
19	36210	11.9	-0.87587285694166
19	36841	12	0.42395713059435
19	37472	12.1	0.9321249236843
19	38103	12.2	-0.4731241818034
19	38734	12.3	-0.31821416438863
19	39365	12.4	0.23556527178794
19	39996	12.5	0.088237226419814
19	40627	12.6	0.79327569884047
19	41258	12.7	-0.13274648330103
19	41889	12.8	-0.5983039264089
19	42520	12.9	-0.26899172846772
19	43151	13	1.3148052961093
19	43782	13.1	-0.29016033961323
19	44413	13.2	0.18735550092867
19	45044	13.3	0.5358786666056
19	45675	13.4	-0.51682903033583
19	46306	13.5	0.66631069999151
19	46937	13.6	0.23211186115734
19	47568	13.7	-1.2913200858628
19	48199	13.8	-0.011534595377647
19	48830	13.9	0.60036822969021
19	49461	14	0.44411497441736
19	50092	14.1	0.23875496187145
19	50723	14.2	-0.91563636362082
19	51354	14.3	-0.44096977237512
19	51985	14.4	1.204364809704
19	52616	14.5	-0.35378340950654
19	53247	14.6	0.30264091352553
19	53878	14.7	0.12791163933169
19	54509	14.8	-0.76055940795516
19	55140	14.9	0.16954035544895
19	55771	15	1.0809120580076
19	56402	15.1	-0.43833451670682
19	57033	15.2	0.55118717297734
19	57664	15.3	-1.7193437619879
19	58295	15.4	1.5988466013029
19	58926	15.5	-0.35438229924566
19	59557	15.6	-0.81906026029632
19	60188	15.7	0.16741555056345
19	60819	15.8	0.11729879712842
19	61450	15.9	1.0069099730825
19	62081	16	-0.55113023852794
19	62712	16.1	0.68081617682878
19	63343	16.2	0.026894516256064
19	63974	16.3	-0.24019727143301
19	64605	16.4	-1.0229661736972
19	65236	16.5	1.5622508432875
19	65867	16.6	-0.66458580772409
19	66498	16.7	1.1221200186542
19	67129	16.8	-1.6736646719014
19	67760	16.9	0.78406034027473
19	68391	17	0.6104814335205
19	69022	17.1	0.23838383007377
19	69653	17.2	-0.52606717222854
19	70284	17.3	0.19303866017342
19	70915	17.4	0.031859043651181
19	71546	17.5	-0.16829152354482
19	72177	17.6	0.192850536741
19	72808	17.7	-0.306680727087
19	73439	17.8	-0.097475700268426
19	74070	17.9	0.38783024292812
19	74701	18	-0.23220902842862
19	75332	18.1	0.87320647395096
19	75963	18.2	-0.74570388939993
19	76594	18.3	-0.64602952780046
19	77225	18.4	0.42864905109525
19	77856	18.5	1.2250908156455
19	78487	18.6	-1.4238799065661
19	79118	18.7	0.40584234490101
19	79749	18.8	0.35510688687175
19	80380	18.9	0.21574417028962
19	81011	19	-0.090240086610045
19	81642	19.1	0.06223331427595
19	82273	19.2	-0.25205612383655
19	82904	19.3	-0.39494488049908
19	83535	19.4	0.36722204414708
19	84166	19.5	-0.46123694030712
19	84797	19.6	0.27804323684347
19	85428	19.7	0.19089661957118
19	85942	19.8	-0.16776542038116
19	86456	19.9	0.089844166627806
19	86970	20	0.13967882180399
19	87484	20.1	1.0824371125289
19	87998	20.2	-0.97293064801679
19	88512	20.3	-0.1258327044302
19	89026	20.4	-0.03785437779964
19	89540	20.5	1.7001776599473
19	90054	20.6	-1.2412965092778
19	90568	20.7	0.18047877139118
19	91082	20.8	0.13457190717052
19	91596	20.9	-0.24887347769027
19	92110	21	0.21665971705335
19	92519	21.1	0.90832278727618
19	92928	21.2	-0.36629874685314
19	93337	21.3	0.19862993927674
19	93746	21.4	-0.31356324963273
19	94155	21.5	0.25082454127261
19	94564	21.6	-0.67832045413088
19	94973	21.7	-0.0049740694230493
19	95382	21.8	0.97657682211139
19	95791	21.9	0.1203609573189
19	96200	22	-0.26682139220647
19	96609	22.1	-0.29706855090335
19	97018	22.2	-0.48896119084674
19	97427	22.3	0.54281170035246
18	476	2.2	17.158547226619
18	540	2.3	17.248061303085
18	604	2.4	17.391493680783
18	668	2.5	17.477823200498
18	732	2.6	17.456363339156
18	796	2.7	17.470752474401
18	860	2.8	17.479360026085
18	924	2.9	17.634494726554
18	988	3	17.65117985804
18	1052	3.1	17.576726139864
18	1161	3.2	17.665041996113
18	1270	3.3	17.804135242093
18	1379	3.4	17.852248168711
18	1488	3.5	17.810387140073
18	1597	3.6	17.912000737651
18	1706	3.7	17.923928288412
18	1815	3.8	17.931943515274
18	1924	3.9	17.903868245375
18	2033	4	18.031563663622
18	2142	4.1	18.037502594688
18	2308	4.2	18.144605906628
18	2474	4.3	18.123536285731
18	2640	4.4	18.198914045513
18	2806	4.5	18.200247456512
18	2972	4.6	18.247109994987
18	3138	4.7	18.317018651874
18	3304	4.8	18.314669720705
18	3470	4.9	18.27385890576
18	3636	5	18.33751622531
18	3802	5.1	18.444602934329
18	4037	5.2	18.444190784821
18	4272	5.3	18.417376674978
18	4507	5.4	18.524473793883
18	4742	5.5	18.5428738099
18	4977	5.6	18.537619311829
18	5212	5.7	18.565358540993
18	5447	5.8	18.5797678013
18	5682	5.9	18.520886557857
18	5917	6	18.638109726463
18	6152	6.1	18.728041682286
18	6468	6.2	18.709165187791
18	6784	6.3	18.673676341179
18	7100	6.4	18.713266898448
18	7416	6.5	18.806305851196
18	7732	6.6	18.820766324134
18	8048	6.7	18.792849071388
18	8364	6.8	18.880278384098
18	8680	6.9	18.943862166692
18	8996	7	18.890867594483
18	9312	7.1	18.869246126416
18	9721	7.2	18.933297193857
18	10130	7.3	19.051484793386
18	10539	7.4	18.945618439651
18	10948	7.5	18.934907499533
18	11357	7.6	18.987657701086
18	11766	7.7	19.043305955601
18	12175	7.8	18.954744679872
18	12584	7.9	19.086848295536
18	12993	8	19.076722192835
18	13402	8.1	19.123707582558
18	13916	8.2	19.236325403347
18	14430	8.3	19.063604413588
18	14944	8.4	19.162939845975
18	15458	8.5	19.1902847644
18	15972	8.6	19.238660021986
18	16486	8.7	19.1489001519
18	17000	8.8	19.150485326116
18	17514	8.9	19.194582890078
18	18028	9	19.236849279022
18	18542	9.1	19.284258876354
18	19173	9.2	19.249865976292
18	19804	9.3	19.354950461656
18	20435	9.4	19.268490490694
18	21066	9.5	19.313286932466
18	21697	9.6	19.326030201662
18	22328	9.7	19.355234123855
18	22959	9.8	19.43297256077
18	23590	9.9	19.378395544506
18	24221	10	19.26028896468
18	24852	10.1	19.415490988415
18	25483	10.2	19.361559554562
18	26114	10.3	19.462809474963
18	26745	10.4	19.391273358422
18	27376	10.5	19.402591586282
18	28007	10.6	19.460533190255
18	28638	10.7	19.536557931817
18	29269	10.8	19.499579814612
18	29900	10.9	19.446487665081
18	30531	11	19.588561079013
18	31162	11.1	19.49168641803
18	31793	11.2	19.479099407842
18	32424	11.3	19.516606801631
18	33055	11.4	19.468542894727
18	33686	11.5	19.443650591237
18	34317	11.6	19.430441878797
18	34948	11.7	19.448622885286
18	35579	11.8	19.602114865768
18	36210	11.9	19.514527580074
18	36841	12	19.556923293133
18	37472	12.1	19.650135785502
18	38103	12.2	19.602823367321
18	38734	12.3	19.571001950882
18	39365	12.4	19.594558478061
18	39996	12.5	19.603382200703
18	40627	12.6	19.682709770587
18	41258	12.7	19.669435122257
18	41889	12.8	19.609604729616
18	42520	12.9	19.58270555677
18	43151	13	19.71418608638
18	43782	13.1	19.685170052419
18	44413	13.2	19.703905602512
18	45044	13.3	19.757493469173
18	45675	13.4	19.705810566139
18	46306	13.5	19.772441636138
18	46937	13.6	19.795652822254
18	47568	13.7	19.666520813668
18	48199	13.8	19.66536735413
18	48830	13.9	19.725404177099
18	49461	14	19.769815674541
18	50092	14.1	19.793691170728
18	50723	14.2	19.702127534366
18	51354	14.3	19.658030557128
18	51985	14.4	19.778467038099
18	52616	14.5	19.743088697148
18	53247	14.6	19.7733527885
18	53878	14.7	19.786143952434
18	54509	14.8	19.710088011638
18	55140	14.9	19.727042047183
18	55771	15	19.835133252984
18	56402	15.1	19.791299801313
18	57033	15.2	19.846418518611
18	57664	15.3	19.674484142412
18	58295	15.4	19.834368802542
18	58926	15.5	19.798930572618
18	59557	15.6	19.717024546588
18	60188	15.7	19.733766101644
18	60819	15.8	19.745495981357
18	61450	15.9	19.846186978666
18	62081	16	19.791073954813
18	62712	16.1	19.859155572496
18	63343	16.2	19.861845024121
18	63974	16.3	19.837825296978
18	64605	16.4	19.735528679608
18	65236	16.5	19.891753763937
18	65867	16.6	19.825295183165
18	66498	16.7	19.93750718503
18	67129	16.8	19.77014071784
18	67760	16.9	19.848546751867
18	68391	17	19.909594895219
18	69022	17.1	19.933433278227
18	69653	17.2	19.880826561004
18	70284	17.3	19.900130427021
18	70915	17.4	19.903316331386
18	71546	17.5	19.886487179032
18	72177	17.6	19.905772232706
18	72808	17.7	19.875104159997
18	73439	17.8	19.86535658997
18	74070	17.9	19.904139614263
18	74701	18	19.88091871142
18	75332	18.1	19.968239358815
18	75963	18.2	19.893668969875
18	76594	18.3	19.829066017095
18	77225	18.4	19.871930922205
18	77856	18.5	19.994440003769
18	78487	18.6	19.852052013113
18	79118	18.7	19.892636247603
18	79749	18.8	19.92814693629
18	80380	18.9	19.949721353319
18	81011	19	19.940697344658
18	81642	19.1	19.946920676086
18	82273	19.2	19.921715063702
18	82904	19.3	19.882220575652
18	83535	19.4	19.918942780067
18	84166	19.5	19.872819086036
18	84797	19.6	19.90062340972
18	85428	19.7	19.919713071678
18	85942	19.8	19.902936529639
18	86456	19.9	19.911920946302
18	86970	20	19.925888828483
18	87484	20.1	20.034132539736
18	87998	20.2	19.936839474934
18	88512	20.3	19.924256204491
18	89026	20.4	19.920470766711
18	89540	20.5	20.090488532706
18	90054	20.6	19.966358881778
18	90568	20.7	19.984406758917
18	91082	20.8	19.997863949634
18	91596	20.9	19.972976601865
18	92110	21	19.99464257357
18	92519	21.1	20.085474852298
18	92928	21.2	20.048844977613
18	93337	21.3	20.06870797154
18	93746	21.4	20.037351646577
18	94155	21.5	20.062434100704
18	94564	21.6	19.994602055291
18	94973	21.7	19.994104648349
18	95382	21.8	20.09176233056
18	95791	21.9	20.103798426292
18	96200	22	20.077116287071
18	96609	22.1	20.047409431981
18	97018	22.2	19.998513312896
18	97427	22.3	20.052794482931
17	412	2.1	416.30025728988
17	476	2.2	416.30025728988
17	540	2.3	414.58448913037
17	604	2.4	412.8597700148
17	668	2.5	411.12070838506
17	732	2.6	409.37301423887
17	796	2.7	407.62746597056
17	860	2.8	405.88047886131
17	924	2.9	404.13263104032
17	988	3	402.36927053192
17	1052	3.1	400.60424159454
17	1161	3.2	398.84665765337
17	1270	3.3	397.08024257213
17	1379	3.4	395.29991886799
17	1488	3.5	393.51478411392
17	1597	3.6	391.73383525153
17	1706	3.7	389.94272554201
17	1815	3.8	388.15042313759
17	1924	3.9	386.35731925091
17	2033	4	384.56702274959
17	2142	4.1	382.76395735066
17	2308	4.2	380.96029808858
17	2474	4.3	379.14592903563
17	2640	4.4	377.33366683848
17	2806	4.5	375.51386724562
17	2972	4.6	373.69393431839
17	3138	4.7	371.86931537373
17	3304	4.8	370.03770591607
17	3470	4.9	368.20633133967
17	3636	5	366.37903763887
17	3802	5.1	364.54537852727
17	4037	5.2	362.70101128501
17	4272	5.3	360.85668525562
17	4507	5.4	359.01504050194
17	4742	5.5	357.16268657666
17	4977	5.6	355.3084927426
17	5212	5.7	353.45482433185
17	5447	5.8	351.59838213812
17	5682	5.9	349.74049909105
17	5917	6	347.88850387128
17	6152	6.1	346.02478692603
17	6468	6.2	344.15207723889
17	6784	6.3	342.28125510597
17	7100	6.4	340.41398167867
17	7416	6.5	338.54274939538
17	7732	6.6	336.66221368619
17	8048	6.7	334.78023200265
17	8364	6.8	332.90104190355
17	8680	6.9	331.01310931425
17	8996	7	329.11881866746
17	9312	7.1	327.22982721054
17	9721	7.2	325.34299779136
17	10130	7.3	323.44976358855
17	10539	7.4	321.54471122204
17	10948	7.5	319.65024495682
17	11357	7.6	317.75684973157
17	11766	7.7	315.85817975229
17	12175	7.8	313.9539452283
17	12584	7.9	312.0585663851
17	12993	8	310.14997784678
17	13402	8.1	308.24240186764
17	13916	8.2	306.33012758657
17	14430	8.3	304.40659209157
17	14944	8.4	302.50032782418
17	15458	8.5	300.58413051469
17	15972	8.6	298.66519885131
17	16486	8.7	296.74142990622
17	17000	8.8	294.82663649531
17	17514	8.9	292.91168457497
17	18028	9	290.99232312071
17	18542	9.1	289.06873524078
17	19173	9.2	287.14040664029
17	19804	9.3	285.2155171563
17	20435	9.4	283.28011975392
17	21066	9.5	281.35336791245
17	21697	9.6	279.4221366528
[...]
68	92519	21.1	-0.34741800026968
68	92928	21.2	-0.65568161653356
68	93337	21.3	1.0877389526693
68	93746	21.4	-0.82636086142156
68	94155	21.5	-0.31009489193092
68	94564	21.6	0.32377173248676
68	94973	21.7	0.42776722477285
68	95382	21.8	-0.10572075797246
68	95791	21.9	0.27850313163363
68	96200	22	-0.73370572263375
68	96609	22.1	-0.26776483405847
68	97018	22.2	0.74822377855888
68	97427	22.3	-0.69791992972604
68	97836	22.4	0.36808300090488
68	98152	22.5	0.73326263809577
68	98468	22.6	-0.60695824103895
68	98784	22.7	0.031392575474456
68	99100	22.8	0.28754539755173
68	99416	22.9	-0.10890425217806
68	99732	23	-0.81488525150341
68	100048	23.1	0.18076815498059
68	100364	23.2	0.71330181907399
68	100680	23.3	-0.34922415078618
68	100996	23.4	-0.1366095955018
68	101312	23.5	0.43577158851548
68	101628	23.6	0.43043777835557
68	101944	23.7	-1.2243647621246
68	102179	23.8	1.0978473326424
68	102345	23.9	-0.40691893454643
68	102511	24	-0.58992299425881
68	102677	24.1	0.365984023083
68	102843	24.2	-0.20140662966295
68	103009	24.3	0.8845564979827
68	103175	24.4	-0.94466320085338
68	103341	24.5	-0.22570943301545
68	103507	24.6	1.0872313134838
68	103673	24.7	0.034911721642104
68	103839	24.8	-0.90393019530456
68	104005	24.9	0.87564231103752
68	104171	25	-1.1130938681075
68	104337	25.1	0.21275983978995
68	104503	25.2	0.61576909732537
68	104612	25.3	-0.053298930590948
68	104721	25.4	0.39160695062016
68	104830	25.5	-0.91033807152414
68	104939	25.6	0.97488628439603
68	105048	25.7	-1.153237673454
68	105112	25.8	0.039103189040901
68	105176	25.9	0.088763989415028
68	105240	26	0.047927944990818
68	105304	26.1	0.31025800276545
68	105368	26.2	-0.49669999752659
68	105432	26.3	0.96515446084087
68	105496	26.4	-0.12215010751969
68	105560	26.5	-0.85650795749388
68	105624	26.6	0.75225238543933
68	105688	26.7	0.16979943814224
68	105719	26.8	0.22496552073861
68	105750	26.9	-0.94019210813567
68	105781	27	0.49491227446122
68	105812	27.1	-0.67191274862267
68	105843	27.2	0.7309857813874
68	105874	27.3	-0.38863729760049
68	105905	27.4	-0.23562886994334
68	105936	27.5	0.93709261908661
68	105967	27.6	-0.6176139276009
68	105998	27.7	-0.41807873256037
68	106008	27.8	0.30995427838061
68	106018	27.9	0.32616417596582
68	106028	28	-0.65815213809255
68	106038	28.1	-0.00016458942557307
68	106048	28.2	1.0787281936035
68	106058	28.3	-0.91024645094297
68	106068	28.4	0.97950246518014
68	106078	28.5	-0.7755298027303
68	106088	28.6	0.086906763492145
67	19173	9.2	20.042415029344
67	19804	9.3	20.000063451328
67	20435	9.4	20.04980612905
67	21066	9.5	20.050780770776
67	21697	9.6	20.094495773658
67	22328	9.7	20.114666196681
67	22959	9.8	20.007396385414
67	23590	9.9	20.07177274972
67	24221	10	20.065144380985
67	24852	10.1	20.110542566341
67	25483	10.2	20.058154747158
67	26114	10.3	20.013513184665
67	26745	10.4	19.993594207589
67	27376	10.5	20.100751150998
67	28007	10.6	20.00733392074
67	28638	10.7	20.077280713504
67	29269	10.8	19.990656755436
67	29900	10.9	20.079951792902
67	30531	11	20.051364412899
67	31162	11.1	20.074193203312
67	31793	11.2	20.01926989767
67	32424	11.3	20.020109503479
67	33055	11.4	20.105565569974
67	33686	11.5	20.004933235047
67	34317	11.6	20.109073752048
67	34948	11.7	20.076784685631
67	35579	11.8	20.041095998317
67	36210	11.9	20.047230291828
67	36841	12	19.99239253849
67	37472	12.1	20.030756692304
67	38103	12.2	19.996644441457
67	38734	12.3	20.11769833202
67	39365	12.4	20.035851565488
67	39996	12.5	20.008189550571
67	40627	12.6	20.070607663505
67	41258	12.7	20.042728073332
67	41889	12.8	20.014708003059
67	42520	12.9	20.046213866663
67	43151	13	20.026883707203
67	43782	13.1	19.992990217179
67	44413	13.2	20.077391281207
67	45044	13.3	20.06078277492
67	45675	13.4	20.006894829124
67	46306	13.5	20.086995938157
67	46937	13.6	20.046593122229
67	47568	13.7	20.020190659419
67	48199	13.8	20.014884272325
67	48830	13.9	20.052320139981
67	49461	14	20.012778658248
67	50092	14.1	20.022010764142
67	50723	14.2	20.09983371903
67	51354	14.3	20.025181391246
67	51985	14.4	20.035620269179
67	52616	14.5	20.07065676562
67	53247	14.6	20.057167868661
67	53878	14.7	19.992242333863
67	54509	14.8	20.117763595271
67	55140	14.9	20.096419556364
67	55771	15	20.034288064407
67	56402	15.1	20.08757484667
67	57033	15.2	20.057256775657
67	57664	15.3	20.004259292178
67	58295	15.4	20.020791232514
67	58926	15.5	20.092634335188
67	59557	15.6	20.087327693116
67	60188	15.7	20.086741677923
67	60819	15.8	20.033517926708
67	61450	15.9	20.083569298121
67	62081	16	20.044334170606
67	62712	16.1	20.119206570967
67	63343	16.2	19.991382730694
67	63974	16.3	20.105749149835
67	64605	16.4	20.066923354485
67	65236	16.5	19.99759593426
67	65867	16.6	20.098249369422
67	66498	16.7	20.091559325918
67	67129	16.8	20.049162649484
67	67760	16.9	20.057430551294
67	68391	17	19.998317476772
67	69022	17.1	20.045120999373
67	69653	17.2	20.097947591359
67	70284	17.3	20.082601433911
67	70915	17.4	20.118477012767
67	71546	17.5	20.047967154207
67	72177	17.6	20.028564723306
67	72808	17.7	20.031621422658
67	73439	17.8	20.053795401445
67	74070	17.9	20.105483551819
67	74701	18	20.082856105396
67	75332	18.1	20.085859404095
67	75963	18.2	19.994041073627
67	76594	18.3	20.061946688674
67	77225	18.4	20.114115740829
67	77856	18.5	20.052845928061
67	78487	18.6	20.086641843882
67	79118	18.7	20.060031248429
67	79749	18.8	20.103555213176
67	80380	18.9	20.091415476478
67	81011	19	19.993222195243
67	81642	19.1	19.992118130645
67	82273	19.2	20.041948667879
67	82904	19.3	19.996193180841
67	83535	19.4	20.002549678218
67	84166	19.5	20.10348532086
67	84797	19.6	20.076252698123
67	85428	19.7	20.078856332554
67	85942	19.8	20.07374432863
67	86456	19.9	20.102810282744
67	86970	20	20.027818585183
67	87484	20.1	20.106902041382
67	87998	20.2	20.110764288674
67	88512	20.3	20.031186668021
67	89026	20.4	20.038654871057
67	89540	20.5	20.104716215876
67	90054	20.6	20.100102003026
67	90568	20.7	20.012548357029
67	91082	20.8	20.069564801345
67	91596	20.9	20.111730450492
67	92110	21	20.109268235285
67	92519	21.1	20.074526435258
67	92928	21.2	20.008958273605
67	93337	21.3	20.117732168871
67	93746	21.4	20.035096082729
67	94155	21.5	20.004086593536
67	94564	21.6	20.036463766785
67	94973	21.7	20.079240489262
67	95382	21.8	20.068668413465
67	95791	21.9	20.096518726628
67	96200	22	20.023148154365
67	96609	22.1	19.996371670959
67	97018	22.2	20.071194048815
67	97427	22.3	20.001402055842
67	97836	22.4	20.038210355933
67	98152	22.5	20.111536619742
67	98468	22.6	20.050840795639
67	98784	22.7	20.053980053186
67	99100	22.8	20.082734592941
67	99416	22.9	20.071844167723
67	99732	23	19.990355642573
67	100048	23.1	20.008432458071
67	100364	23.2	20.079762639978
67	100680	23.3	20.0448402249
67	100996	23.4	20.03117926535
67	101312	23.5	20.074756424201
67	101628	23.6	20.117800202037
67	101944	23.7	19.995363725824
67	102179	23.8	20.105148459089
67	102345	23.9	20.064456565634
67	102511	24	20.005464266208
67	102677	24.1	20.042062668516
67	102843	24.2	20.02192200555
67	103009	24.3	20.110377655348
67	103175	24.4	20.015911335263
67	103341	24.5	19.993340391961
67	103507	24.6	20.10206352331
67	103673	24.7	20.105554695474
67	103839	24.8	20.015161675944
67	104005	24.9	20.102725907047
67	104171	25	19.991416520237
67	104337	25.1	20.012692504216
67	104503	25.2	20.074269413948
67	104612	25.3	20.068939520889
67	104721	25.4	20.108100215951
67	104830	25.5	20.017066408799
67	104939	25.6	20.114555037238
67	105048	25.7	19.999231269893
67	105112	25.8	20.003141588797
67	105176	25.9	20.012017987738
67	105240	26	20.016810782237
67	105304	26.1	20.047836582514
67	105368	26.2	19.998166582761
67	105432	26.3	20.094682028845
67	105496	26.4	20.082467018093
67	105560	26.5	19.996816222344
67	105624	26.6	20.072041460888
67	105688	26.7	20.089021404702
67	105719	26.8	20.111517956776
67	105750	26.9	20.017498745963
67	105781	27	20.066989973409
67	105812	27.1	19.999798698546
67	105843	27.2	20.072897276685
67	105874	27.3	20.034033546925
67	105905	27.4	20.010470659931
67	105936	27.5	20.104179921839
67	105967	27.6	20.042418529079
67	105998	27.7	20.000610655823
67	106008	27.8	20.031606083661
67	106018	27.9	20.064222501258
67	106028	28	19.998407287449
67	106038	28.1	19.998390828506
67	106048	28.2	20.106263647866
67	106058	28.3	20.015239002772
67	106068	28.4	20.11318924929
67	106078	28.5	20.035636269017
67	106088	28.6	20.044326945366
66	18542	9.1	416.30025728988
66	19173	9.2	416.30025728988
66	19804	9.3	414.29611689892
66	20435	9.4	412.2962114521
66	21066	9.5	410.29133198845
66	21697	9.6	408.28635506555
66	22328	9.7	406.2770068629
66	22959	9.8	404.2656417197
66	23590	9.9	402.26500301647
66	24221	10	400.25792700157
66	24852	10.1	398.25151379011
66	25483	10.2	396.24056098915
66	26114	10.3	394.23484670581
66	26745	10.4	392.23359635351
66	27376	10.5	390.23433779842
66	28007	10.6	388.22436408959
66	28638	10.7	386.22373163251
66	29269	10.8	384.21610484903
66	29900	10.9	382.21714002434
66	30531	11	380.20924614639
66	31162	11.1	378.20421086222
66	31793	11.2	376.19689281418
66	32424	11.3	374.19506681962
66	33055	11.4	372.19315686871
66	33686	11.5	370.18270174228
66	34317	11.6	368.18230934165
66	34948	11.7	366.1715034147
66	35579	11.8	364.1639262315
66	36210	11.9	362.15991773699
66	36841	12	360.15529584407
66	37472	12.1	358.15615744984
66	38103	12.2	356.15318283376
66	38734	12.3	354.15361927068
66	39365	12.4	352.14195092925
66	39996	12.5	350.13846685156
66	40627	12.6	348.13774883581
66	41258	12.7	346.13078932366
66	41889	12.8	344.12661762988
66	42520	12.9	342.12524780176
66	43151	13	340.12072754623
66	43782	13.1	338.11814020913
66	44413	13.2	336.11894205004
66	45044	13.3	334.11130421034
66	45675	13.4	332.10532713749
66	46306	13.5	330.10473858735
66	46937	13.6	328.09614033041
66	47568	13.7	326.09158215124
66	48199	13.8	324.08966408515
66	48830	13.9	322.088276631
66	49461	14	320.08314577894
66	50092	14.1	318.08196887558
66	50723	14.2	316.0798688082
66	51354	14.3	314.06998683794
66	51985	14.4	312.06756972384
66	52616	14.5	310.06410877462
66	53247	14.6	308.0571443525
66	53878	14.7	306.05152875204
66	54509	14.8	304.0524053775
66	55140	14.9	302.04073051008
66	55771	15	300.03118993886
66	56402	15.1	298.02786220339
66	57033	15.2	296.01920605852
66	57664	15.3	294.0135815678
66	58295	15.4	292.01325655806
66	58926	15.5	290.01127843769
66	59557	15.6	288.0021163695
66	60188	15.7	285.99348493874
66	60819	15.8	283.98491210654
66	61450	15.9	281.98166138096
66	62081	16	279.97340577074
66	62712	16.1	277.96907347533
66	63343	16.2	275.95725431761
66	63974	16.3	273.95821689906
66	64605	16.4	271.94774341556
66	65236	16.5	269.94115231573
66	65867	16.6	267.94149360816
66	66498	16.7	265.93177006487
66	67129	16.8	263.92271549218
66	67760	16.9	261.91790037324
66	68391	17	259.91225850584
66	69022	17.1	257.91252764767
66	69653	17.2	255.90811667335
66	70284	17.3	253.89842330634
66	70915	17.4	251.89026447766
66	71546	17.5	249.87851827208
66	72177	17.6	247.87382269664
66	72808	17.7	245.87106726641
66	73439	17.8	243.86800618166
66	74070	17.9	241.8627278109
66	74701	18	239.85228088587
66	75332	18.1	237.84409659132
66	75963	18.2	235.83561198205
66	76594	18.3	233.83630874262
66	77225	18.4	231.83021528426
66	77856	18.5	229.81890518387
66	78487	18.6	227.81372175566
66	79118	18.7	225.80515890636
66	79749	18.8	223.79925698237
66	80380	18.9	221.78900288147
66	81011	19	219.77996269299
66	81642	19.1	217.78074133727
66	82273	19.2	215.78163038243
66	82904	19.3	213.77753662526
66	83535	19.4	211.77801818596
66	84166	19.5	209.777864129
66	84797	19.6	207.76761701698
66	85428	19.7	205.76009302984
66	85942	19.8	203.7523086924
66	86456	19.9	201.74503552957
66	86970	20	199.73485591795
66	87484	20.1	197.73217509777
66	87998	20.2	195.72158633093
66	88512	20.3	193.71061135885
66	89026	20.4	191.70759374737
66	89540	20.5	189.70382935327
66	90054	20.6	187.69345915796
66	90568	20.7	185.68355036065
66	91082	20.8	183.68239648625
66	91596	20.9	181.67554125505
66	92110	21	179.66446967166
66	92519	21.1	177.65364429737
66	92928	21.2	175.64629292782
66	93337	21.3	173.64549804364
66	93746	21.4	171.6338263187
66	94155	21.5	169.63041778547
66	94564	21.6	167.63011004473
66	94973	21.7	165.62656475
66	95382	21.8	163.61874199882
66	95791	21.9	161.61197640189
66	96200	22	159.60242591415
66	96609	22.1	157.60021211349
66	97018	22.2	155.60067582608
66	97427	22.3	153.59365767835
66	97836	22.4	151.59361837784
66	98152	22.5	149.589898433
66	98468	22.6	147.57884623171
66	98784	22.7	145.57386330663
66	99100	22.8	143.56856647162
66	99416	22.9	141.56039432771
66	99732	23	139.55331117138
66	100048	23.1	137.55437645646
66	100364	23.2	135.55363415118
66	100680	23.3	133.54575918757
66	100996	23.4	131.54137628929
66	101312	23.5	129.53835941804
66	101628	23.6	127.53098505075
66	101944	23.7	125.51930652283
66	102179	23.8	123.51987102485
66	102345	23.9	121.5094576074
66	102511	24	119.503113174
66	102677	24.1	117.50266767294
66	102843	24.2	115.49856251628
66	103009	24.3	113.49647132431
66	103175	24.4	111.48553501362
66	103341	24.5	109.48404485835
66	103507	24.6	107.48481168355
66	103673	24.7	105.47470674411
66	103839	24.8	103.46425270507
66	104005	24.9	101.46283751196
66	104171	25	99.452666337486
66	104337	25.1	97.453625540152
66	104503	25.2	95.452457251755
66	104612	25.3	93.445131583034
66	104721	25.4	91.43833887673
66	104830	25.5	89.427630298482
66	104939	25.6	87.426024641693
66	105048	25.7	85.41467061388
66	105112	25.8	83.414848381004
66	105176	25.9	81.414635135966
66	105240	26	79.413534295814
66	105304	26.1	77.411954200391
66	105368	26.2	75.407271681462
66	105432	26.3	73.407555911929
66	105496	26.4	71.398189084698
66	105560	26.5	69.390043696918
66	105624	26.6	67.390462956614
66	105688	26.7	65.383360071959
66	105719	26.8	63.374559278585
66	105750	26.9	61.363508943497
66	105781	27	59.361860055172
66	105812	27.1	57.355262293781
66	105843	27.2	55.355383320903
66	105874	27.3	53.348194858986
66	105905	27.4	51.344892573981
66	105936	27.5	49.343946458804
66	105967	27.6	47.333629890189
66	105998	27.7	45.329489149271
66	106008	27.8	43.329528984761
66	106018	27.9	41.326469433837
66	106028	28	39.320148405699
66	106038	28.1	37.320408566911
66	106048	28.2	35.320670373935
66	106058	28.3	33.31014544323
66	106068	28.4	31.308722517824
66	106078	28.5	29.297505061915
66	106088	28.6	27.294042512787
65	18542	9.1	23.397598627787
65	19173	9.2	23.397598627787
65	19804	9.3	23.416304342551
65	20435	9.4	23.434970530314
65	21066	9.5	23.453683143239
65	21697	9.6	23.472396665803
65	22328	9.7	23.49115098786
65	22959	9.8	23.509924135102
65	23590	9.9	23.52859716674
65	24221	10	23.547330281253
65	24852	10.1	23.566057209466
65	25483	10.2	23.584826508098
65	26114	10.3	23.603546912841
65	26745	10.4	23.622225653327
65	27376	10.5	23.640885803304
65	28007	10.6	23.659645963545
65	28638	10.7	23.678318936884
65	29269	10.8	23.697057192015
65	29900	10.9	23.715714600449
65	30531	11	23.734455348515
65	31162	11.1	23.753169415796
65	31793	11.2	23.771904789333
65	32424	11.3	23.790588902597
65	33055	11.4	23.80927379947
65	33686	11.5	23.828038453039
65	34317	11.6	23.846709185803
65	34948	11.7	23.865477113581
65	35579	11.8	23.884214905765
65	36210	11.9	23.902919389469
65	36841	12	23.921629598348
65	37472	12.1	23.940288626799
65	38103	12.2	23.958983460762
65	38734	12.3	23.977646457541
65	39365	12.4	23.996422434695
65	39996	12.5	24.015122023736
65	40627	12.6	24.03379579564
65	41258	12.7	24.05252782277
65	41889	12.8	24.071233829699
65	42520	12.9	24.089913685317
65	43151	13	24.10862294556
65	43782	13.1	24.127314164841
65	44413	13.2	24.14597375111
65	45044	13.3	24.164712109434
65	45675	13.4	24.183434966932
65	46306	13.5	24.202107530465
65	46937	13.6	24.220854852877
65	47568	13.7	24.239564467081
65	48199	13.8	24.258249439698
65	48830	13.9	24.276929459829
65	49461	14	24.295644419096
65	50092	14.1	24.314322474044
65	50723	14.2	24.333009145375
65	51354	14.3	24.351768449371
65	51985	14.4	24.370458079869
65	52616	14.5	24.389157453039
65	53247	14.6	24.407889525997
65	53878	14.7	24.42660900968
65	54509	14.8	24.445267897945
65	55140	14.9	24.464043936009
65	55771	15	24.482800053545
65	56402	15.1	24.50149818336
65	57033	15.2	24.520246046071
65	57664	15.3	24.538965612732
65	58295	15.4	24.557635716501
65	58926	15.5	24.576321249636
65	59557	15.6	24.5950738344
65	60188	15.7	24.613821466441
65	60819	15.8	24.632568551551
65	61450	15.9	24.651265962591
65	62081	16	24.670010086898
65	62712	16.1	24.688717592809
65	63343	16.2	24.707494977612
65	63974	16.3	24.726153063603
65	64605	16.4	24.744917888508
65	65236	16.5	24.763646477049
65	65867	16.6	24.782310361863
65	66498	16.7	24.801068187175
65	67129	16.8	24.819819768627
65	67760	16.9	24.838531780987
65	68391	17	24.857251509834
65	69022	17.1	24.875916068068
65	69653	17.2	24.894624308331
65	70284	17.3	24.913381851992
65	70915	17.4	24.932125072985
65	71546	17.5	24.950901776886
65	72177	17.6	24.969612673484
65	72808	17.7	24.988305461668
65	73439	17.8	25.007001102689
65	74070	17.9	25.025717438827
65	74701	18	25.044482015848
65	75332	18.1	25.063225474527
65	75963	18.2	25.081971736205
65	76594	18.3	25.100632303245
65	77225	18.4	25.119356247032
65	77856	18.5	25.13812888053
65	78487	18.6	25.156844330518
65	79118	18.7	25.175591322452
65	79749	18.8	25.194313478546
65	80380	18.9	25.213076255836
65	81011	19	25.231827703032
65	81642	19.1	25.250487505807
65	82273	19.2	25.269146278152
65	82904	19.3	25.287851557657
65	83535	19.4	25.306514133273
65	84166	19.5	25.325182641448
65	84797	19.6	25.343945353507
65	85428	19.7	25.362682649184
65	85942	19.8	25.38142237485
65	86456	19.9	25.40015732945
65	86970	20	25.418919411492
65	87484	20.1	25.4376115033
65	87998	20.2	25.456377404207
65	88512	20.3	25.475146909773
65	89026	20.4	25.493842145035
65	89540	20.5	25.512544350418
65	90054	20.6	25.53130821128
65	90568	20.7	25.550067765667
65	91082	20.8	25.568745605673
65	91596	20.9	25.587476659493
65	92110	21	25.606247066785
65	92519	21.1	25.625015176075
65	92928	21.2	25.64375086062
65	93337	21.3	25.662425349979
65	93746	21.4	25.681201358713
65	94155	21.5	25.699900242656
65	94564	21.6	25.718570185244
65	94973	21.7	25.737270345656
65	95382	21.8	25.756010429858
65	95791	21.9	25.774740647074
65	96200	22	25.793496857166
65	96609	22.1	25.812184590031
65	97018	22.2	25.830847332232
65	97427	22.3	25.84957990664
65	97836	22.4	25.868247343731
65	98152	22.5	25.886949134246
65	98468	22.6	25.905719360634
65	98784	22.7	25.92443293922
65	99100	22.8	25.943149447694
65	99416	22.9	25.961892792966
65	99732	23	25.980625974133
65	100048	23.1	25.999283101537
65	100364	23.2	26.017957100148
65	100680	23.3	26.036697671676
65	100996	23.4	26.055405649891
65	101312	23.5	26.074100878243
65	101628	23.6	26.092836777439
65	101944	23.7	26.111612849668
65	102179	23.8	26.130274651148
65	102345	23.9	26.149038915425
65	102511	24	26.167765201696
65	102677	24.1	26.186436430074
65	102843	24.2	26.205141815977
65	103009	24.3	26.22382840447
65	103175	24.4	26.242597549189
65	103341	24.5	26.261278527885
65	103507	24.6	26.279938440974
65	103673	24.7	26.29869982606
65	103839	24.8	26.31746446948
65	104005	24.9	26.336144748514
65	104171	25	26.354906751807
65	104337	25.1	26.373564869334
65	104503	25.2	26.392242843874
65	104612	25.3	26.410978288539
65	104721	25.4	26.429708758781
65	104830	25.5	26.448475777952
65	104939	25.6	26.467157834685
65	105048	25.7	26.485930878181
65	105112	25.8	26.504596289265
65	105176	25.9	26.523265349874
65	105240	26	26.541942694883
65	105304	26.1	26.560624513038
65	105368	26.2	26.579335287772
65	105432	26.3	26.597999705176
65	105496	26.4	26.616754201066
65	105560	26.5	26.635497296608
65	105624	26.6	26.654160453712
65	105688	26.7	26.672893819015
65	105719	26.8	26.691643031808
65	105750	26.9	26.710413240778
65	105781	27	26.729095701014
65	105812	27.1	26.747824351731
65	105843	27.2	26.766490292399
65	105874	27.3	26.78522445644
65	105905	27.4	26.803922348712
65	105936	27.5	26.82259824959
65	105967	27.6	26.841361609925
65	105998	27.7	26.860067327954
65	106008	27.8	26.878734026427
65	106018	27.9	26.897429653133
65	106028	28	26.91615572095
65	106038	28.1	26.934820363005
65	106048	28.2	26.953484989699
65	106058	28.3	26.972250294788
65	106068	28.4	26.990930645992
65	106078	28.5	27.00970241479
65	106088	28.6	27.028401802893
